api/pglib_opf_case118_ieee__api.m
%%%%%%%%%%%%%%%%%%%%%%%%%%%%%%%%%%%%%%%%%%%%%%%%%%%%%%%%%%%%%%%%%%%%%%%%%%%
%%%%                                                                  %%%%%
%%%%    IEEE PES Power Grid Library - Optimal Power Flow - v18.08     %%%%%
%%%%          (https://github.com/power-grid-lib/pglib-opf)           %%%%%
%%%%             Benchmark Group - Active Power Increase              %%%%%
%%%%                        08 - August - 2018                        %%%%%
%%%%                                                                  %%%%%
%%%%%%%%%%%%%%%%%%%%%%%%%%%%%%%%%%%%%%%%%%%%%%%%%%%%%%%%%%%%%%%%%%%%%%%%%%%
function mpc = pglib_opf_case118_ieee__api
mpc.version = '2';
mpc.baseMVA = 100.0;

%% bus data
%	bus_i	type	Pd	Qd	Gs	Bs	area	Vm	Va	baseKV	zone	Vmax	Vmin
mpc.bus = [
	1	 2	 85.45	 27.00	 0.0	 0.0	 1	    1.00000	    0.00000	 138.0	 1	    1.06000	    0.94000;
	2	 1	 33.51	 9.00	 0.0	 0.0	 1	    1.00000	    0.00000	 138.0	 1	    1.06000	    0.94000;
	3	 1	 65.34	 10.00	 0.0	 0.0	 1	    1.00000	    0.00000	 138.0	 1	    1.06000	    0.94000;
	4	 2	 65.34	 12.00	 0.0	 0.0	 1	    1.00000	    0.00000	 138.0	 1	    1.06000	    0.94000;
	5	 1	 0.0	 0.0	 0.0	 -40.0	 1	    1.00000	    0.00000	 138.0	 1	    1.06000	    0.94000;
	6	 2	 87.12	 22.00	 0.0	 0.0	 1	    1.00000	    0.00000	 138.0	 1	    1.06000	    0.94000;
	7	 1	 31.83	 2.00	 0.0	 0.0	 1	    1.00000	    0.00000	 138.0	 1	    1.06000	    0.94000;
	8	 2	 28.00	 0.00	 0.0	 0.0	 1	    1.00000	    0.00000	 345.0	 1	    1.06000	    0.94000;
	9	 1	 0.0	 0.0	 0.0	 0.0	 1	    1.00000	    0.00000	 345.0	 1	    1.06000	    0.94000;
	10	 2	 0.0	 0.0	 0.0	 0.0	 1	    1.00000	    0.00000	 345.0	 1	    1.06000	    0.94000;
	11	 1	 117.28	 23.00	 0.0	 0.0	 1	    1.00000	    0.00000	 138.0	 1	    1.06000	    0.94000;
	12	 2	 78.75	 10.00	 0.0	 0.0	 1	    1.00000	    0.00000	 138.0	 1	    1.06000	    0.94000;
	13	 1	 56.96	 16.00	 0.0	 0.0	 1	    1.00000	    0.00000	 138.0	 1	    1.06000	    0.94000;
	14	 1	 23.46	 1.00	 0.0	 0.0	 1	    1.00000	    0.00000	 138.0	 1	    1.06000	    0.94000;
	15	 2	 150.79	 30.00	 0.0	 0.0	 1	    1.00000	    0.00000	 138.0	 1	    1.06000	    0.94000;
	16	 1	 41.89	 10.00	 0.0	 0.0	 1	    1.00000	    0.00000	 138.0	 1	    1.06000	    0.94000;
	17	 1	 18.43	 3.00	 0.0	 0.0	 1	    1.00000	    0.00000	 138.0	 1	    1.06000	    0.94000;
	18	 2	 100.53	 34.00	 0.0	 0.0	 1	    1.00000	    0.00000	 138.0	 1	    1.06000	    0.94000;
	19	 2	 75.39	 25.00	 0.0	 0.0	 1	    1.00000	    0.00000	 138.0	 1	    1.06000	    0.94000;
	20	 1	 30.16	 3.00	 0.0	 0.0	 1	    1.00000	    0.00000	 138.0	 1	    1.06000	    0.94000;
	21	 1	 23.46	 8.00	 0.0	 0.0	 1	    1.00000	    0.00000	 138.0	 1	    1.06000	    0.94000;
	22	 1	 16.75	 5.00	 0.0	 0.0	 1	    1.00000	    0.00000	 138.0	 1	    1.06000	    0.94000;
	23	 1	 11.73	 3.00	 0.0	 0.0	 1	    1.00000	    0.00000	 138.0	 1	    1.06000	    0.94000;
	24	 2	 13.00	 0.00	 0.0	 0.0	 1	    1.00000	    0.00000	 138.0	 1	    1.06000	    0.94000;
	25	 2	 0.0	 0.0	 0.0	 0.0	 1	    1.00000	    0.00000	 138.0	 1	    1.06000	    0.94000;
	26	 2	 0.0	 0.0	 0.0	 0.0	 1	    1.00000	    0.00000	 345.0	 1	    1.06000	    0.94000;
	27	 2	 118.96	 13.00	 0.0	 0.0	 1	    1.00000	    0.00000	 138.0	 1	    1.06000	    0.94000;
	28	 1	 28.48	 7.00	 0.0	 0.0	 1	    1.00000	    0.00000	 138.0	 1	    1.06000	    0.94000;
	29	 1	 40.21	 4.00	 0.0	 0.0	 1	    1.00000	    0.00000	 138.0	 1	    1.06000	    0.94000;
	30	 1	 0.0	 0.0	 0.0	 0.0	 1	    1.00000	    0.00000	 345.0	 1	    1.06000	    0.94000;
	31	 2	 72.04	 27.00	 0.0	 0.0	 1	    1.00000	    0.00000	 138.0	 1	    1.06000	    0.94000;
	32	 2	 98.85	 23.00	 0.0	 0.0	 1	    1.00000	    0.00000	 138.0	 1	    1.06000	    0.94000;
	33	 1	 38.54	 9.00	 0.0	 0.0	 1	    1.00000	    0.00000	 138.0	 1	    1.06000	    0.94000;
	34	 2	 98.85	 26.00	 0.0	 14.0	 1	    1.00000	    0.00000	 138.0	 1	    1.06000	    0.94000;
	35	 1	 55.29	 9.00	 0.0	 0.0	 1	    1.00000	    0.00000	 138.0	 1	    1.06000	    0.94000;
	36	 2	 51.94	 17.00	 0.0	 0.0	 1	    1.00000	    0.00000	 138.0	 1	    1.06000	    0.94000;
	37	 1	 0.0	 0.0	 0.0	 -25.0	 1	    1.00000	    0.00000	 138.0	 1	    1.06000	    0.94000;
	38	 1	 0.0	 0.0	 0.0	 0.0	 1	    1.00000	    0.00000	 345.0	 1	    1.06000	    0.94000;
	39	 1	 45.24	 11.00	 0.0	 0.0	 1	    1.00000	    0.00000	 138.0	 1	    1.06000	    0.94000;
	40	 2	 110.58	 23.00	 0.0	 0.0	 1	    1.00000	    0.00000	 138.0	 1	    1.06000	    0.94000;
	41	 1	 61.99	 10.00	 0.0	 0.0	 1	    1.00000	    0.00000	 138.0	 1	    1.06000	    0.94000;
	42	 2	 160.84	 23.00	 0.0	 0.0	 1	    1.00000	    0.00000	 138.0	 1	    1.06000	    0.94000;
	43	 1	 30.16	 7.00	 0.0	 0.0	 1	    1.00000	    0.00000	 138.0	 1	    1.06000	    0.94000;
	44	 1	 26.81	 8.00	 0.0	 10.0	 1	    1.00000	    0.00000	 138.0	 1	    1.06000	    0.94000;
	45	 1	 88.80	 22.00	 0.0	 10.0	 1	    1.00000	    0.00000	 138.0	 1	    1.06000	    0.94000;
	46	 2	 46.91	 10.00	 0.0	 10.0	 1	    1.00000	    0.00000	 138.0	 1	    1.06000	    0.94000;
	47	 1	 34.00	 0.00	 0.0	 0.0	 1	    1.00000	    0.00000	 138.0	 1	    1.06000	    0.94000;
	48	 1	 33.51	 11.00	 0.0	 15.0	 1	    1.00000	    0.00000	 138.0	 1	    1.06000	    0.94000;
	49	 2	 145.76	 30.00	 0.0	 0.0	 1	    1.00000	    0.00000	 138.0	 1	    1.06000	    0.94000;
	50	 1	 28.48	 4.00	 0.0	 0.0	 1	    1.00000	    0.00000	 138.0	 1	    1.06000	    0.94000;
	51	 1	 28.48	 8.00	 0.0	 0.0	 1	    1.00000	    0.00000	 138.0	 1	    1.06000	    0.94000;
	52	 1	 30.16	 5.00	 0.0	 0.0	 1	    1.00000	    0.00000	 138.0	 1	    1.06000	    0.94000;
	53	 1	 38.54	 11.00	 0.0	 0.0	 1	    1.00000	    0.00000	 138.0	 1	    1.06000	    0.94000;
	54	 2	 189.32	 32.00	 0.0	 0.0	 1	    1.00000	    0.00000	 138.0	 1	    1.06000	    0.94000;
	55	 2	 105.55	 22.00	 0.0	 0.0	 1	    1.00000	    0.00000	 138.0	 1	    1.06000	    0.94000;
	56	 2	 140.74	 18.00	 0.0	 0.0	 1	    1.00000	    0.00000	 138.0	 1	    1.06000	    0.94000;
	57	 1	 20.11	 3.00	 0.0	 0.0	 1	    1.00000	    0.00000	 138.0	 1	    1.06000	    0.94000;
	58	 1	 20.11	 3.00	 0.0	 0.0	 1	    1.00000	    0.00000	 138.0	 1	    1.06000	    0.94000;
	59	 2	 464.10	 113.00	 0.0	 0.0	 1	    1.00000	    0.00000	 138.0	 1	    1.06000	    0.94000;
	60	 1	 130.68	 3.00	 0.0	 0.0	 1	    1.00000	    0.00000	 138.0	 1	    1.06000	    0.94000;
	61	 2	 0.0	 0.0	 0.0	 0.0	 1	    1.00000	    0.00000	 138.0	 1	    1.06000	    0.94000;
	62	 2	 129.01	 14.00	 0.0	 0.0	 1	    1.00000	    0.00000	 138.0	 1	    1.06000	    0.94000;
	63	 1	 0.0	 0.0	 0.0	 0.0	 1	    1.00000	    0.00000	 345.0	 1	    1.06000	    0.94000;
	64	 1	 0.0	 0.0	 0.0	 0.0	 1	    1.00000	    0.00000	 345.0	 1	    1.06000	    0.94000;
	65	 2	 0.0	 0.0	 0.0	 0.0	 1	    1.00000	    0.00000	 345.0	 1	    1.06000	    0.94000;
	66	 2	 65.34	 18.00	 0.0	 0.0	 1	    1.00000	    0.00000	 138.0	 1	    1.06000	    0.94000;
	67	 1	 46.91	 7.00	 0.0	 0.0	 1	    1.00000	    0.00000	 138.0	 1	    1.06000	    0.94000;
	68	 1	 0.0	 0.0	 0.0	 0.0	 1	    1.00000	    0.00000	 345.0	 1	    1.06000	    0.94000;
	69	 3	 0.0	 0.0	 0.0	 0.0	 1	    1.00000	    0.00000	 138.0	 1	    1.06000	    0.94000;
	70	 2	 110.58	 20.00	 0.0	 0.0	 1	    1.00000	    0.00000	 138.0	 1	    1.06000	    0.94000;
	71	 1	 0.0	 0.0	 0.0	 0.0	 1	    1.00000	    0.00000	 138.0	 1	    1.06000	    0.94000;
	72	 2	 12.00	 0.00	 0.0	 0.0	 1	    1.00000	    0.00000	 138.0	 1	    1.06000	    0.94000;
	73	 2	 6.00	 0.00	 0.0	 0.0	 1	    1.00000	    0.00000	 138.0	 1	    1.06000	    0.94000;
	74	 2	 113.93	 27.00	 0.0	 12.0	 1	    1.00000	    0.00000	 138.0	 1	    1.06000	    0.94000;
	75	 1	 78.75	 11.00	 0.0	 0.0	 1	    1.00000	    0.00000	 138.0	 1	    1.06000	    0.94000;
	76	 2	 113.93	 36.00	 0.0	 0.0	 1	    1.00000	    0.00000	 138.0	 1	    1.06000	    0.94000;
	77	 2	 102.20	 28.00	 0.0	 0.0	 1	    1.00000	    0.00000	 138.0	 1	    1.06000	    0.94000;
	78	 1	 118.96	 26.00	 0.0	 0.0	 1	    1.00000	    0.00000	 138.0	 1	    1.06000	    0.94000;
	79	 1	 65.34	 32.00	 0.0	 20.0	 1	    1.00000	    0.00000	 138.0	 1	    1.06000	    0.94000;
	80	 2	 217.81	 26.00	 0.0	 0.0	 1	    1.00000	    0.00000	 138.0	 1	    1.06000	    0.94000;
	81	 1	 0.0	 0.0	 0.0	 0.0	 1	    1.00000	    0.00000	 345.0	 1	    1.06000	    0.94000;
	82	 1	 90.47	 27.00	 0.0	 20.0	 1	    1.00000	    0.00000	 138.0	 1	    1.06000	    0.94000;
	83	 1	 33.51	 10.00	 0.0	 10.0	 1	    1.00000	    0.00000	 138.0	 1	    1.06000	    0.94000;
	84	 1	 18.43	 7.00	 0.0	 0.0	 1	    1.00000	    0.00000	 138.0	 1	    1.06000	    0.94000;
	85	 2	 40.21	 15.00	 0.0	 0.0	 1	    1.00000	    0.00000	 138.0	 1	    1.06000	    0.94000;
	86	 1	 35.18	 10.00	 0.0	 0.0	 1	    1.00000	    0.00000	 138.0	 1	    1.06000	    0.94000;
	87	 2	 0.0	 0.0	 0.0	 0.0	 1	    1.00000	    0.00000	 161.0	 1	    1.06000	    0.94000;
	88	 1	 80.42	 10.00	 0.0	 0.0	 1	    1.00000	    0.00000	 138.0	 1	    1.06000	    0.94000;
	89	 2	 0.0	 0.0	 0.0	 0.0	 1	    1.00000	    0.00000	 138.0	 1	    1.06000	    0.94000;
	90	 2	 273.10	 42.00	 0.0	 0.0	 1	    1.00000	    0.00000	 138.0	 1	    1.06000	    0.94000;
	91	 2	 10.00	 0.00	 0.0	 0.0	 1	    1.00000	    0.00000	 138.0	 1	    1.06000	    0.94000;
	92	 2	 108.90	 10.00	 0.0	 0.0	 1	    1.00000	    0.00000	 138.0	 1	    1.06000	    0.94000;
	93	 1	 20.11	 7.00	 0.0	 0.0	 1	    1.00000	    0.00000	 138.0	 1	    1.06000	    0.94000;
	94	 1	 50.26	 16.00	 0.0	 0.0	 1	    1.00000	    0.00000	 138.0	 1	    1.06000	    0.94000;
	95	 1	 70.37	 31.00	 0.0	 0.0	 1	    1.00000	    0.00000	 138.0	 1	    1.06000	    0.94000;
	96	 1	 63.67	 15.00	 0.0	 0.0	 1	    1.00000	    0.00000	 138.0	 1	    1.06000	    0.94000;
	97	 1	 25.13	 9.00	 0.0	 0.0	 1	    1.00000	    0.00000	 138.0	 1	    1.06000	    0.94000;
	98	 1	 56.96	 8.00	 0.0	 0.0	 1	    1.00000	    0.00000	 138.0	 1	    1.06000	    0.94000;
	99	 2	 42.00	 0.00	 0.0	 0.0	 1	    1.00000	    0.00000	 138.0	 1	    1.06000	    0.94000;
	100	 2	 61.99	 18.00	 0.0	 0.0	 1	    1.00000	    0.00000	 138.0	 1	    1.06000	    0.94000;
	101	 1	 36.86	 15.00	 0.0	 0.0	 1	    1.00000	    0.00000	 138.0	 1	    1.06000	    0.94000;
	102	 1	 8.38	 3.00	 0.0	 0.0	 1	    1.00000	    0.00000	 138.0	 1	    1.06000	    0.94000;
	103	 2	 38.54	 16.00	 0.0	 0.0	 1	    1.00000	    0.00000	 138.0	 1	    1.06000	    0.94000;
	104	 2	 63.67	 25.00	 0.0	 0.0	 1	    1.00000	    0.00000	 138.0	 1	    1.06000	    0.94000;
	105	 2	 51.94	 26.00	 0.0	 20.0	 1	    1.00000	    0.00000	 138.0	 1	    1.06000	    0.94000;
	106	 1	 72.04	 16.00	 0.0	 0.0	 1	    1.00000	    0.00000	 138.0	 1	    1.06000	    0.94000;
	107	 2	 83.77	 12.00	 0.0	 6.0	 1	    1.00000	    0.00000	 138.0	 1	    1.06000	    0.94000;
	108	 1	 3.35	 1.00	 0.0	 0.0	 1	    1.00000	    0.00000	 138.0	 1	    1.06000	    0.94000;
	109	 1	 13.40	 3.00	 0.0	 0.0	 1	    1.00000	    0.00000	 138.0	 1	    1.06000	    0.94000;
	110	 2	 65.34	 30.00	 0.0	 6.0	 1	    1.00000	    0.00000	 138.0	 1	    1.06000	    0.94000;
	111	 2	 0.0	 0.0	 0.0	 0.0	 1	    1.00000	    0.00000	 138.0	 1	    1.06000	    0.94000;
	112	 2	 113.93	 13.00	 0.0	 0.0	 1	    1.00000	    0.00000	 138.0	 1	    1.06000	    0.94000;
	113	 2	 6.00	 0.00	 0.0	 0.0	 1	    1.00000	    0.00000	 138.0	 1	    1.06000	    0.94000;
	114	 1	 13.40	 3.00	 0.0	 0.0	 1	    1.00000	    0.00000	 138.0	 1	    1.06000	    0.94000;
	115	 1	 36.86	 7.00	 0.0	 0.0	 1	    1.00000	    0.00000	 138.0	 1	    1.06000	    0.94000;
	116	 2	 184.00	 0.00	 0.0	 0.0	 1	    1.00000	    0.00000	 138.0	 1	    1.06000	    0.94000;
	117	 1	 33.51	 8.00	 0.0	 0.0	 1	    1.00000	    0.00000	 138.0	 1	    1.06000	    0.94000;
	118	 1	 55.29	 15.00	 0.0	 0.0	 1	    1.00000	    0.00000	 138.0	 1	    1.06000	    0.94000;
];

%% generator data
%	bus	Pg	Qg	Qmax	Qmin	Vg	mBase	status	Pmax	Pmin	Pc1	Pc2	Qc1min	Qc1max	Qc2min	Qc2max	ramp_agc	ramp_10	ramp_30	ramp_q	apf
mpc.gen = [
	1	 0.0	 0.0	 117.6	 -117.6	 0.955	 100.0	 1	 0	 0.0	 0.0	 0.0	 0.0	 0.0	 0.0	 0.0	 0.0	 0.0	 0.0	 0.0	 0.0; % SYNC
	4	 0.0	 0.0	 300.0	 -300.0	 0.998	 100.0	 1	 0	 0.0	 0.0	 0.0	 0.0	 0.0	 0.0	 0.0	 0.0	 0.0	 0.0	 0.0	 0.0; % SYNC
	6	 0.0	 0.0	 115.2	 -115.2	 0.99	 100.0	 1	 0	 0.0	 0.0	 0.0	 0.0	 0.0	 0.0	 0.0	 0.0	 0.0	 0.0	 0.0	 0.0; % SYNC
	8	 0.0	 0.0	 300.0	 -300.0	 1.015	 100.0	 1	 0	 0.0	 0.0	 0.0	 0.0	 0.0	 0.0	 0.0	 0.0	 0.0	 0.0	 0.0	 0.0; % SYNC
	10	 401.0	 0.0	 401.0	 -401.0	 1.05	 100.0	 1	 802	 0.0	 0.0	 0.0	 0.0	 0.0	 0.0	 0.0	 0.0	 0.0	 0.0	 0.0	 0.0; % NG
	12	 379.5	 0.0	 380.0	 -380.0	 0.99	 100.0	 1	 759	 0.0	 0.0	 0.0	 0.0	 0.0	 0.0	 0.0	 0.0	 0.0	 0.0	 0.0	 0.0; % NG
	15	 0.0	 0.0	 100.8	 -100.8	 0.97	 100.0	 1	 0	 0.0	 0.0	 0.0	 0.0	 0.0	 0.0	 0.0	 0.0	 0.0	 0.0	 0.0	 0.0; % SYNC
	18	 0.0	 0.0	 111.6	 -111.6	 0.973	 100.0	 1	 0	 0.0	 0.0	 0.0	 0.0	 0.0	 0.0	 0.0	 0.0	 0.0	 0.0	 0.0	 0.0; % SYNC
	19	 0.0	 0.0	 97.2	 -97.2	 0.962	 100.0	 1	 0	 0.0	 0.0	 0.0	 0.0	 0.0	 0.0	 0.0	 0.0	 0.0	 0.0	 0.0	 0.0; % SYNC
	24	 0.0	 0.0	 300.0	 -300.0	 0.992	 100.0	 1	 0	 0.0	 0.0	 0.0	 0.0	 0.0	 0.0	 0.0	 0.0	 0.0	 0.0	 0.0	 0.0; % SYNC
	25	 106.0	 0.0	 153.6	 -153.6	 1.05	 100.0	 1	 212	 0.0	 0.0	 0.0	 0.0	 0.0	 0.0	 0.0	 0.0	 0.0	 0.0	 0.0	 0.0; % NG
	26	 220.5	 0.0	 243.0	 -243.0	 1.015	 100.0	 1	 441	 0.0	 0.0	 0.0	 0.0	 0.0	 0.0	 0.0	 0.0	 0.0	 0.0	 0.0	 0.0; % NG
	27	 0.0	 0.0	 300.0	 -300.0	 0.968	 100.0	 1	 0	 0.0	 0.0	 0.0	 0.0	 0.0	 0.0	 0.0	 0.0	 0.0	 0.0	 0.0	 0.0; % SYNC
	31	 284.0	 0.0	 284.0	 -284.0	 0.967	 100.0	 1	 568	 0.0	 0.0	 0.0	 0.0	 0.0	 0.0	 0.0	 0.0	 0.0	 0.0	 0.0	 0.0; % NG
	32	 0.0	 0.0	 103.2	 -103.2	 0.963	 100.0	 1	 0	 0.0	 0.0	 0.0	 0.0	 0.0	 0.0	 0.0	 0.0	 0.0	 0.0	 0.0	 0.0; % SYNC
	34	 0.0	 0.0	 175.2	 -175.2	 0.984	 100.0	 1	 0	 0.0	 0.0	 0.0	 0.0	 0.0	 0.0	 0.0	 0.0	 0.0	 0.0	 0.0	 0.0; % SYNC
	36	 0.0	 0.0	 74.4	 -74.4	 0.98	 100.0	 1	 0	 0.0	 0.0	 0.0	 0.0	 0.0	 0.0	 0.0	 0.0	 0.0	 0.0	 0.0	 0.0; % SYNC
	40	 0.0	 0.0	 300.0	 -300.0	 0.97	 100.0	 1	 0	 0.0	 0.0	 0.0	 0.0	 0.0	 0.0	 0.0	 0.0	 0.0	 0.0	 0.0	 0.0; % SYNC
	42	 0.0	 0.0	 300.0	 -300.0	 0.985	 100.0	 1	 0	 0.0	 0.0	 0.0	 0.0	 0.0	 0.0	 0.0	 0.0	 0.0	 0.0	 0.0	 0.0; % SYNC
	46	 252.5	 0.0	 253.0	 -253.0	 1.005	 100.0	 1	 505	 0.0	 0.0	 0.0	 0.0	 0.0	 0.0	 0.0	 0.0	 0.0	 0.0	 0.0	 0.0; % PEL
	49	 121.0	 0.0	 289.2	 -289.2	 1.025	 100.0	 1	 242	 0.0	 0.0	 0.0	 0.0	 0.0	 0.0	 0.0	 0.0	 0.0	 0.0	 0.0	 0.0; % NG
	54	 203.5	 0.0	 204.0	 -204.0	 0.955	 100.0	 1	 407	 0.0	 0.0	 0.0	 0.0	 0.0	 0.0	 0.0	 0.0	 0.0	 0.0	 0.0	 0.0; % NG
	55	 0.0	 0.0	 32.4	 -32.4	 0.952	 100.0	 1	 0	 0.0	 0.0	 0.0	 0.0	 0.0	 0.0	 0.0	 0.0	 0.0	 0.0	 0.0	 0.0; % SYNC
	56	 0.0	 0.0	 24.0	 -24.0	 0.954	 100.0	 1	 0	 0.0	 0.0	 0.0	 0.0	 0.0	 0.0	 0.0	 0.0	 0.0	 0.0	 0.0	 0.0; % SYNC
	59	 390.0	 0.0	 390.0	 -390.0	 0.985	 100.0	 1	 780	 0.0	 0.0	 0.0	 0.0	 0.0	 0.0	 0.0	 0.0	 0.0	 0.0	 0.0	 0.0; % NG
	61	 118.5	 0.0	 119.0	 -119.0	 0.995	 100.0	 1	 237	 0.0	 0.0	 0.0	 0.0	 0.0	 0.0	 0.0	 0.0	 0.0	 0.0	 0.0	 0.0; % NG
	62	 0.0	 0.0	 20.0	 -20.0	 0.998	 100.0	 1	 0	 0.0	 0.0	 0.0	 0.0	 0.0	 0.0	 0.0	 0.0	 0.0	 0.0	 0.0	 0.0; % SYNC
	65	 578.0	 0.0	 578.0	 -578.0	 1.005	 100.0	 1	 1156	 0.0	 0.0	 0.0	 0.0	 0.0	 0.0	 0.0	 0.0	 0.0	 0.0	 0.0	 0.0; % COW
	66	 69.5	 65.0	 200.0	 -70.0	 1.05	 100.0	 1	 139	 0.0	 0.0	 0.0	 0.0	 0.0	 0.0	 0.0	 0.0	 0.0	 0.0	 0.0	 0.0; % COW
	69	 56.5	 0.0	 300.0	 -300.0	 1.035	 100.0	 1	 113	 0.0	 0.0	 0.0	 0.0	 0.0	 0.0	 0.0	 0.0	 0.0	 0.0	 0.0	 0.0; % COW
	70	 0.0	 0.0	 316.8	 -316.8	 0.984	 100.0	 1	 0	 0.0	 0.0	 0.0	 0.0	 0.0	 0.0	 0.0	 0.0	 0.0	 0.0	 0.0	 0.0; % SYNC
	72	 0.0	 0.0	 100.0	 -100.0	 0.98	 100.0	 1	 0	 0.0	 0.0	 0.0	 0.0	 0.0	 0.0	 0.0	 0.0	 0.0	 0.0	 0.0	 0.0; % SYNC
	73	 0.0	 0.0	 100.0	 -100.0	 0.991	 100.0	 1	 0	 0.0	 0.0	 0.0	 0.0	 0.0	 0.0	 0.0	 0.0	 0.0	 0.0	 0.0	 0.0; % SYNC
	74	 0.0	 0.0	 86.4	 -86.4	 0.958	 100.0	 1	 0	 0.0	 0.0	 0.0	 0.0	 0.0	 0.0	 0.0	 0.0	 0.0	 0.0	 0.0	 0.0; % SYNC
	76	 0.0	 0.0	 40.8	 -40.8	 0.943	 100.0	 1	 0	 0.0	 0.0	 0.0	 0.0	 0.0	 0.0	 0.0	 0.0	 0.0	 0.0	 0.0	 0.0; % SYNC
	77	 0.0	 0.0	 207.6	 -207.6	 1.006	 100.0	 1	 0	 0.0	 0.0	 0.0	 0.0	 0.0	 0.0	 0.0	 0.0	 0.0	 0.0	 0.0	 0.0; % SYNC
	80	 152.5	 9.9	 255.0	 -235.2	 1.04	 100.0	 1	 305	 0.0	 0.0	 0.0	 0.0	 0.0	 0.0	 0.0	 0.0	 0.0	 0.0	 0.0	 0.0; % COW
	85	 0.0	 0.0	 277.2	 -277.2	 0.985	 100.0	 1	 0	 0.0	 0.0	 0.0	 0.0	 0.0	 0.0	 0.0	 0.0	 0.0	 0.0	 0.0	 0.0; % SYNC
	87	 79.5	 0.0	 80.0	 -80.0	 1.015	 100.0	 1	 159	 0.0	 0.0	 0.0	 0.0	 0.0	 0.0	 0.0	 0.0	 0.0	 0.0	 0.0	 0.0; % NG
	89	 574.0	 0.0	 574.0	 -574.0	 1.005	 100.0	 1	 1148	 0.0	 0.0	 0.0	 0.0	 0.0	 0.0	 0.0	 0.0	 0.0	 0.0	 0.0	 0.0; % COW
	90	 0.0	 0.0	 300.0	 -300.0	 0.985	 100.0	 1	 0	 0.0	 0.0	 0.0	 0.0	 0.0	 0.0	 0.0	 0.0	 0.0	 0.0	 0.0	 0.0; % SYNC
	91	 0.0	 0.0	 100.0	 -100.0	 0.98	 100.0	 1	 0	 0.0	 0.0	 0.0	 0.0	 0.0	 0.0	 0.0	 0.0	 0.0	 0.0	 0.0	 0.0; % SYNC
	92	 0.0	 0.9	 9.0	 -7.2	 0.99	 100.0	 1	 0	 0.0	 0.0	 0.0	 0.0	 0.0	 0.0	 0.0	 0.0	 0.0	 0.0	 0.0	 0.0; % SYNC
	99	 0.0	 0.0	 100.0	 -100.0	 1.01	 100.0	 1	 0	 0.0	 0.0	 0.0	 0.0	 0.0	 0.0	 0.0	 0.0	 0.0	 0.0	 0.0	 0.0; % SYNC
	100	 457.5	 0.0	 458.0	 -458.0	 1.017	 100.0	 1	 915	 0.0	 0.0	 0.0	 0.0	 0.0	 0.0	 0.0	 0.0	 0.0	 0.0	 0.0	 0.0; % COW
	103	 168.0	 0.0	 168.0	 -168.0	 1.01	 100.0	 1	 336	 0.0	 0.0	 0.0	 0.0	 0.0	 0.0	 0.0	 0.0	 0.0	 0.0	 0.0	 0.0; % NG
	104	 0.0	 0.0	 84.0	 -84.0	 0.971	 100.0	 1	 0	 0.0	 0.0	 0.0	 0.0	 0.0	 0.0	 0.0	 0.0	 0.0	 0.0	 0.0	 0.0; % SYNC
	105	 0.0	 0.0	 62.4	 -62.4	 0.965	 100.0	 1	 0	 0.0	 0.0	 0.0	 0.0	 0.0	 0.0	 0.0	 0.0	 0.0	 0.0	 0.0	 0.0; % SYNC
	107	 0.0	 0.0	 200.0	 -200.0	 0.952	 100.0	 1	 0	 0.0	 0.0	 0.0	 0.0	 0.0	 0.0	 0.0	 0.0	 0.0	 0.0	 0.0	 0.0; % SYNC
	110	 0.0	 0.0	 84.0	 -84.0	 0.973	 100.0	 1	 0	 0.0	 0.0	 0.0	 0.0	 0.0	 0.0	 0.0	 0.0	 0.0	 0.0	 0.0	 0.0; % SYNC
	111	 94.5	 0.0	 95.0	 -95.0	 0.98	 100.0	 1	 189	 0.0	 0.0	 0.0	 0.0	 0.0	 0.0	 0.0	 0.0	 0.0	 0.0	 0.0	 0.0; % PEL
	112	 0.0	 450.0	 1000.0	 -100.0	 0.975	 100.0	 1	 0	 0.0	 0.0	 0.0	 0.0	 0.0	 0.0	 0.0	 0.0	 0.0	 0.0	 0.0	 0.0; % SYNC
	113	 0.0	 24.4	 200.0	 -151.2	 0.993	 100.0	 1	 0	 0.0	 0.0	 0.0	 0.0	 0.0	 0.0	 0.0	 0.0	 0.0	 0.0	 0.0	 0.0; % SYNC
	116	 0.0	 0.0	 1000.0	 -1000.0	 1.005	 100.0	 1	 0	 0.0	 0.0	 0.0	 0.0	 0.0	 0.0	 0.0	 0.0	 0.0	 0.0	 0.0	 0.0; % SYNC
];

%% generator cost data
%	2	startup	shutdown	n	c(n-1)	...	c0
mpc.gencost = [
	2	 0.0	 0.0	 3	   0.000000	   0.000000	   0.000000; % SYNC
	2	 0.0	 0.0	 3	   0.000000	   0.000000	   0.000000; % SYNC
	2	 0.0	 0.0	 3	   0.000000	   0.000000	   0.000000; % SYNC
	2	 0.0	 0.0	 3	   0.000000	   0.000000	   0.000000; % SYNC
	2	 0.0	 0.0	 3	   0.000000	  37.882494	   0.000000; % NG
	2	 0.0	 0.0	 3	   0.000000	 158.710570	   0.000000; % NG
	2	 0.0	 0.0	 3	   0.000000	   0.000000	   0.000000; % SYNC
	2	 0.0	 0.0	 3	   0.000000	   0.000000	   0.000000; % SYNC
	2	 0.0	 0.0	 3	   0.000000	   0.000000	   0.000000; % SYNC
	2	 0.0	 0.0	 3	   0.000000	   0.000000	   0.000000; % SYNC
	2	 0.0	 0.0	 3	   0.000000	  41.368870	   0.000000; % NG
	2	 0.0	 0.0	 3	   0.000000	  23.158115	   0.000000; % NG
	2	 0.0	 0.0	 3	   0.000000	   0.000000	   0.000000; % SYNC
	2	 0.0	 0.0	 3	   0.000000	  26.658684	   0.000000; % NG
	2	 0.0	 0.0	 3	   0.000000	   0.000000	   0.000000; % SYNC
	2	 0.0	 0.0	 3	   0.000000	   0.000000	   0.000000; % SYNC
	2	 0.0	 0.0	 3	   0.000000	   0.000000	   0.000000; % SYNC
	2	 0.0	 0.0	 3	   0.000000	   0.000000	   0.000000; % SYNC
	2	 0.0	 0.0	 3	   0.000000	   0.000000	   0.000000; % SYNC
	2	 0.0	 0.0	 3	   0.000000	  37.195653	   0.000000; % PEL
	2	 0.0	 0.0	 3	   0.000000	  30.575890	   0.000000; % NG
	2	 0.0	 0.0	 3	   0.000000	  39.899563	   0.000000; % NG
	2	 0.0	 0.0	 3	   0.000000	   0.000000	   0.000000; % SYNC
	2	 0.0	 0.0	 3	   0.000000	   0.000000	   0.000000; % SYNC
	2	 0.0	 0.0	 3	   0.000000	  37.775612	   0.000000; % NG
	2	 0.0	 0.0	 3	   0.000000	  30.032564	   0.000000; % NG
	2	 0.0	 0.0	 3	   0.000000	   0.000000	   0.000000; % SYNC
	2	 0.0	 0.0	 3	   0.000000	  46.498286	   0.000000; % COW
	2	 0.0	 0.0	 3	   0.000000	  32.851524	   0.000000; % COW
	2	 0.0	 0.0	 3	   0.000000	  26.440152	   0.000000; % COW
	2	 0.0	 0.0	 3	   0.000000	   0.000000	   0.000000; % SYNC
	2	 0.0	 0.0	 3	   0.000000	   0.000000	   0.000000; % SYNC
	2	 0.0	 0.0	 3	   0.000000	   0.000000	   0.000000; % SYNC
	2	 0.0	 0.0	 3	   0.000000	   0.000000	   0.000000; % SYNC
	2	 0.0	 0.0	 3	   0.000000	   0.000000	   0.000000; % SYNC
	2	 0.0	 0.0	 3	   0.000000	   0.000000	   0.000000; % SYNC
	2	 0.0	 0.0	 3	   0.000000	  25.366073	   0.000000; % COW
	2	 0.0	 0.0	 3	   0.000000	   0.000000	   0.000000; % SYNC
	2	 0.0	 0.0	 3	   0.000000	  45.874727	   0.000000; % NG
	2	 0.0	 0.0	 3	   0.000000	  25.370090	   0.000000; % COW
	2	 0.0	 0.0	 3	   0.000000	   0.000000	   0.000000; % SYNC
	2	 0.0	 0.0	 3	   0.000000	   0.000000	   0.000000; % SYNC
	2	 0.0	 0.0	 3	   0.000000	   0.000000	   0.000000; % SYNC
	2	 0.0	 0.0	 3	   0.000000	   0.000000	   0.000000; % SYNC
	2	 0.0	 0.0	 3	   0.000000	  14.243118	   0.000000; % COW
	2	 0.0	 0.0	 3	   0.000000	  41.106088	   0.000000; % NG
	2	 0.0	 0.0	 3	   0.000000	   0.000000	   0.000000; % SYNC
	2	 0.0	 0.0	 3	   0.000000	   0.000000	   0.000000; % SYNC
	2	 0.0	 0.0	 3	   0.000000	   0.000000	   0.000000; % SYNC
	2	 0.0	 0.0	 3	   0.000000	   0.000000	   0.000000; % SYNC
	2	 0.0	 0.0	 3	   0.000000	  46.728333	   0.000000; % PEL
	2	 0.0	 0.0	 3	   0.000000	   0.000000	   0.000000; % SYNC
	2	 0.0	 0.0	 3	   0.000000	   0.000000	   0.000000; % SYNC
	2	 0.0	 0.0	 3	   0.000000	   0.000000	   0.000000; % SYNC
];

%% branch data
%	fbus	tbus	r	x	b	rateA	rateB	rateC	ratio	angle	status	angmin	angmax
mpc.branch = [
	1	 2	 0.0303	 0.0999	 0.0254	 151.0	 151.0	 151.0	 0.0	 0.0	 1	 -30.0	 30.0;
	1	 3	 0.0129	 0.0424	 0.01082	 151.0	 151.0	 151.0	 0.0	 0.0	 1	 -30.0	 30.0;
	4	 5	 0.00176	 0.00798	 0.0021	 176.0	 176.0	 176.0	 0.0	 0.0	 1	 -30.0	 30.0;
	3	 5	 0.0241	 0.108	 0.0284	 175.0	 175.0	 175.0	 0.0	 0.0	 1	 -30.0	 30.0;
	5	 6	 0.0119	 0.054	 0.01426	 176.0	 176.0	 176.0	 0.0	 0.0	 1	 -30.0	 30.0;
	6	 7	 0.00459	 0.0208	 0.0055	 176.0	 176.0	 176.0	 0.0	 0.0	 1	 -30.0	 30.0;
	8	 9	 0.00244	 0.0305	 1.162	 711.0	 711.0	 711.0	 0.0	 0.0	 1	 -30.0	 30.0;
	8	 5	 0.0	 0.0267	 0.0	 1099.0	 1099.0	 1099.0	 0.985	 0.0	 1	 -30.0	 30.0;
	9	 10	 0.00258	 0.0322	 1.23	 710.0	 710.0	 710.0	 0.0	 0.0	 1	 -30.0	 30.0;
	4	 11	 0.0209	 0.0688	 0.01748	 151.0	 151.0	 151.0	 0.0	 0.0	 1	 -30.0	 30.0;
	5	 11	 0.0203	 0.0682	 0.01738	 152.0	 152.0	 152.0	 0.0	 0.0	 1	 -30.0	 30.0;
	11	 12	 0.00595	 0.0196	 0.00502	 151.0	 151.0	 151.0	 0.0	 0.0	 1	 -30.0	 30.0;
	2	 12	 0.0187	 0.0616	 0.01572	 151.0	 151.0	 151.0	 0.0	 0.0	 1	 -30.0	 30.0;
	3	 12	 0.0484	 0.16	 0.0406	 151.0	 151.0	 151.0	 0.0	 0.0	 1	 -30.0	 30.0;
	7	 12	 0.00862	 0.034	 0.00874	 164.0	 164.0	 164.0	 0.0	 0.0	 1	 -30.0	 30.0;
	11	 13	 0.02225	 0.0731	 0.01876	 151.0	 151.0	 151.0	 0.0	 0.0	 1	 -30.0	 30.0;
	12	 14	 0.0215	 0.0707	 0.01816	 151.0	 151.0	 151.0	 0.0	 0.0	 1	 -30.0	 30.0;
	13	 15	 0.0744	 0.2444	 0.06268	 115.0	 115.0	 115.0	 0.0	 0.0	 1	 -30.0	 30.0;
	14	 15	 0.0595	 0.195	 0.0502	 144.0	 144.0	 144.0	 0.0	 0.0	 1	 -30.0	 30.0;
	12	 16	 0.0212	 0.0834	 0.0214	 164.0	 164.0	 164.0	 0.0	 0.0	 1	 -30.0	 30.0;
	15	 17	 0.0132	 0.0437	 0.0444	 151.0	 151.0	 151.0	 0.0	 0.0	 1	 -30.0	 30.0;
	16	 17	 0.0454	 0.1801	 0.0466	 158.0	 158.0	 158.0	 0.0	 0.0	 1	 -30.0	 30.0;
	17	 18	 0.0123	 0.0505	 0.01298	 167.0	 167.0	 167.0	 0.0	 0.0	 1	 -30.0	 30.0;
	18	 19	 0.01119	 0.0493	 0.01142	 173.0	 173.0	 173.0	 0.0	 0.0	 1	 -30.0	 30.0;
	19	 20	 0.0252	 0.117	 0.0298	 178.0	 178.0	 178.0	 0.0	 0.0	 1	 -30.0	 30.0;
	15	 19	 0.012	 0.0394	 0.0101	 151.0	 151.0	 151.0	 0.0	 0.0	 1	 -30.0	 30.0;
	20	 21	 0.0183	 0.0849	 0.0216	 177.0	 177.0	 177.0	 0.0	 0.0	 1	 -30.0	 30.0;
	21	 22	 0.0209	 0.097	 0.0246	 178.0	 178.0	 178.0	 0.0	 0.0	 1	 -30.0	 30.0;
	22	 23	 0.0342	 0.159	 0.0404	 178.0	 178.0	 178.0	 0.0	 0.0	 1	 -30.0	 30.0;
	23	 24	 0.0135	 0.0492	 0.0498	 158.0	 158.0	 158.0	 0.0	 0.0	 1	 -30.0	 30.0;
	23	 25	 0.0156	 0.08	 0.0864	 186.0	 186.0	 186.0	 0.0	 0.0	 1	 -30.0	 30.0;
	26	 25	 0.0	 0.0382	 0.0	 768.0	 768.0	 768.0	 0.96	 0.0	 1	 -30.0	 30.0;
	25	 27	 0.0318	 0.163	 0.1764	 177.0	 177.0	 177.0	 0.0	 0.0	 1	 -30.0	 30.0;
	27	 28	 0.01913	 0.0855	 0.0216	 174.0	 174.0	 174.0	 0.0	 0.0	 1	 -30.0	 30.0;
	28	 29	 0.0237	 0.0943	 0.0238	 165.0	 165.0	 165.0	 0.0	 0.0	 1	 -30.0	 30.0;
	30	 17	 0.0	 0.0388	 0.0	 756.0	 756.0	 756.0	 0.96	 0.0	 1	 -30.0	 30.0;
	8	 30	 0.00431	 0.0504	 0.514	 580.0	 580.0	 580.0	 0.0	 0.0	 1	 -30.0	 30.0;
	26	 30	 0.00799	 0.086	 0.908	 340.0	 340.0	 340.0	 0.0	 0.0	 1	 -30.0	 30.0;
	17	 31	 0.0474	 0.1563	 0.0399	 151.0	 151.0	 151.0	 0.0	 0.0	 1	 -30.0	 30.0;
	29	 31	 0.0108	 0.0331	 0.0083	 146.0	 146.0	 146.0	 0.0	 0.0	 1	 -30.0	 30.0;
	23	 32	 0.0317	 0.1153	 0.1173	 158.0	 158.0	 158.0	 0.0	 0.0	 1	 -30.0	 30.0;
	31	 32	 0.0298	 0.0985	 0.0251	 151.0	 151.0	 151.0	 0.0	 0.0	 1	 -30.0	 30.0;
	27	 32	 0.0229	 0.0755	 0.01926	 151.0	 151.0	 151.0	 0.0	 0.0	 1	 -30.0	 30.0;
	15	 33	 0.038	 0.1244	 0.03194	 150.0	 150.0	 150.0	 0.0	 0.0	 1	 -30.0	 30.0;
	19	 34	 0.0752	 0.247	 0.0632	 114.0	 114.0	 114.0	 0.0	 0.0	 1	 -30.0	 30.0;
	35	 36	 0.00224	 0.0102	 0.00268	 176.0	 176.0	 176.0	 0.0	 0.0	 1	 -30.0	 30.0;
	35	 37	 0.011	 0.0497	 0.01318	 175.0	 175.0	 175.0	 0.0	 0.0	 1	 -30.0	 30.0;
	33	 37	 0.0415	 0.142	 0.0366	 154.0	 154.0	 154.0	 0.0	 0.0	 1	 -30.0	 30.0;
	34	 36	 0.00871	 0.0268	 0.00568	 146.0	 146.0	 146.0	 0.0	 0.0	 1	 -30.0	 30.0;
	34	 37	 0.00256	 0.0094	 0.00984	 159.0	 159.0	 159.0	 0.0	 0.0	 1	 -30.0	 30.0;
	38	 37	 0.0	 0.0375	 0.0	 783.0	 783.0	 783.0	 0.935	 0.0	 1	 -30.0	 30.0;
	37	 39	 0.0321	 0.106	 0.027	 151.0	 151.0	 151.0	 0.0	 0.0	 1	 -30.0	 30.0;
	37	 40	 0.0593	 0.168	 0.042	 140.0	 140.0	 140.0	 0.0	 0.0	 1	 -30.0	 30.0;
	30	 38	 0.00464	 0.054	 0.422	 542.0	 542.0	 542.0	 0.0	 0.0	 1	 -30.0	 30.0;
	39	 40	 0.0184	 0.0605	 0.01552	 151.0	 151.0	 151.0	 0.0	 0.0	 1	 -30.0	 30.0;
	40	 41	 0.0145	 0.0487	 0.01222	 152.0	 152.0	 152.0	 0.0	 0.0	 1	 -30.0	 30.0;
	40	 42	 0.0555	 0.183	 0.0466	 151.0	 151.0	 151.0	 0.0	 0.0	 1	 -30.0	 30.0;
	41	 42	 0.041	 0.135	 0.0344	 151.0	 151.0	 151.0	 0.0	 0.0	 1	 -30.0	 30.0;
	43	 44	 0.0608	 0.2454	 0.06068	 117.0	 117.0	 117.0	 0.0	 0.0	 1	 -30.0	 30.0;
	34	 43	 0.0413	 0.1681	 0.04226	 167.0	 167.0	 167.0	 0.0	 0.0	 1	 -30.0	 30.0;
	44	 45	 0.0224	 0.0901	 0.0224	 166.0	 166.0	 166.0	 0.0	 0.0	 1	 -30.0	 30.0;
	45	 46	 0.04	 0.1356	 0.0332	 153.0	 153.0	 153.0	 0.0	 0.0	 1	 -30.0	 30.0;
	46	 47	 0.038	 0.127	 0.0316	 152.0	 152.0	 152.0	 0.0	 0.0	 1	 -30.0	 30.0;
	46	 48	 0.0601	 0.189	 0.0472	 148.0	 148.0	 148.0	 0.0	 0.0	 1	 -30.0	 30.0;
	47	 49	 0.0191	 0.0625	 0.01604	 150.0	 150.0	 150.0	 0.0	 0.0	 1	 -30.0	 30.0;
	42	 49	 0.0715	 0.323	 0.086	 89.0	 89.0	 89.0	 0.0	 0.0	 1	 -30.0	 30.0;
	42	 49	 0.0715	 0.323	 0.086	 89.0	 89.0	 89.0	 0.0	 0.0	 1	 -30.0	 30.0;
	45	 49	 0.0684	 0.186	 0.0444	 138.0	 138.0	 138.0	 0.0	 0.0	 1	 -30.0	 30.0;
	48	 49	 0.0179	 0.0505	 0.01258	 140.0	 140.0	 140.0	 0.0	 0.0	 1	 -30.0	 30.0;
	49	 50	 0.0267	 0.0752	 0.01874	 140.0	 140.0	 140.0	 0.0	 0.0	 1	 -30.0	 30.0;
	49	 51	 0.0486	 0.137	 0.0342	 140.0	 140.0	 140.0	 0.0	 0.0	 1	 -30.0	 30.0;
	51	 52	 0.0203	 0.0588	 0.01396	 142.0	 142.0	 142.0	 0.0	 0.0	 1	 -30.0	 30.0;
	52	 53	 0.0405	 0.1635	 0.04058	 166.0	 166.0	 166.0	 0.0	 0.0	 1	 -30.0	 30.0;
	53	 54	 0.0263	 0.122	 0.031	 177.0	 177.0	 177.0	 0.0	 0.0	 1	 -30.0	 30.0;
	49	 54	 0.073	 0.289	 0.0738	 99.0	 99.0	 99.0	 0.0	 0.0	 1	 -30.0	 30.0;
	49	 54	 0.0869	 0.291	 0.073	 97.0	 97.0	 97.0	 0.0	 0.0	 1	 -30.0	 30.0;
	54	 55	 0.0169	 0.0707	 0.0202	 169.0	 169.0	 169.0	 0.0	 0.0	 1	 -30.0	 30.0;
	54	 56	 0.00275	 0.00955	 0.00732	 155.0	 155.0	 155.0	 0.0	 0.0	 1	 -30.0	 30.0;
	55	 56	 0.00488	 0.0151	 0.00374	 146.0	 146.0	 146.0	 0.0	 0.0	 1	 -30.0	 30.0;
	56	 57	 0.0343	 0.0966	 0.0242	 140.0	 140.0	 140.0	 0.0	 0.0	 1	 -30.0	 30.0;
	50	 57	 0.0474	 0.134	 0.0332	 140.0	 140.0	 140.0	 0.0	 0.0	 1	 -30.0	 30.0;
	56	 58	 0.0343	 0.0966	 0.0242	 140.0	 140.0	 140.0	 0.0	 0.0	 1	 -30.0	 30.0;
	51	 58	 0.0255	 0.0719	 0.01788	 140.0	 140.0	 140.0	 0.0	 0.0	 1	 -30.0	 30.0;
	54	 59	 0.0503	 0.2293	 0.0598	 125.0	 125.0	 125.0	 0.0	 0.0	 1	 -30.0	 30.0;
	56	 59	 0.0825	 0.251	 0.0569	 112.0	 112.0	 112.0	 0.0	 0.0	 1	 -30.0	 30.0;
	56	 59	 0.0803	 0.239	 0.0536	 117.0	 117.0	 117.0	 0.0	 0.0	 1	 -30.0	 30.0;
	55	 59	 0.04739	 0.2158	 0.05646	 133.0	 133.0	 133.0	 0.0	 0.0	 1	 -30.0	 30.0;
	59	 60	 0.0317	 0.145	 0.0376	 176.0	 176.0	 176.0	 0.0	 0.0	 1	 -30.0	 30.0;
	59	 61	 0.0328	 0.15	 0.0388	 176.0	 176.0	 176.0	 0.0	 0.0	 1	 -30.0	 30.0;
	60	 61	 0.00264	 0.0135	 0.01456	 186.0	 186.0	 186.0	 0.0	 0.0	 1	 -30.0	 30.0;
	60	 62	 0.0123	 0.0561	 0.01468	 176.0	 176.0	 176.0	 0.0	 0.0	 1	 -30.0	 30.0;
	61	 62	 0.00824	 0.0376	 0.0098	 176.0	 176.0	 176.0	 0.0	 0.0	 1	 -30.0	 30.0;
	63	 59	 0.0	 0.0386	 0.0	 760.0	 760.0	 760.0	 0.96	 0.0	 1	 -30.0	 30.0;
	63	 64	 0.00172	 0.02	 0.216	 687.0	 687.0	 687.0	 0.0	 0.0	 1	 -30.0	 30.0;
	64	 61	 0.0	 0.0268	 0.0	 1095.0	 1095.0	 1095.0	 0.985	 0.0	 1	 -30.0	 30.0;
	38	 65	 0.00901	 0.0986	 1.046	 297.0	 297.0	 297.0	 0.0	 0.0	 1	 -30.0	 30.0;
	64	 65	 0.00269	 0.0302	 0.38	 675.0	 675.0	 675.0	 0.0	 0.0	 1	 -30.0	 30.0;
	49	 66	 0.018	 0.0919	 0.0248	 186.0	 186.0	 186.0	 0.0	 0.0	 1	 -30.0	 30.0;
	49	 66	 0.018	 0.0919	 0.0248	 186.0	 186.0	 186.0	 0.0	 0.0	 1	 -30.0	 30.0;
	62	 66	 0.0482	 0.218	 0.0578	 132.0	 132.0	 132.0	 0.0	 0.0	 1	 -30.0	 30.0;
	62	 67	 0.0258	 0.117	 0.031	 176.0	 176.0	 176.0	 0.0	 0.0	 1	 -30.0	 30.0;
	65	 66	 0.0	 0.037	 0.0	 793.0	 793.0	 793.0	 0.935	 0.0	 1	 -30.0	 30.0;
	66	 67	 0.0224	 0.1015	 0.02682	 176.0	 176.0	 176.0	 0.0	 0.0	 1	 -30.0	 30.0;
	65	 68	 0.00138	 0.016	 0.638	 686.0	 686.0	 686.0	 0.0	 0.0	 1	 -30.0	 30.0;
	47	 69	 0.0844	 0.2778	 0.07092	 102.0	 102.0	 102.0	 0.0	 0.0	 1	 -30.0	 30.0;
	49	 69	 0.0985	 0.324	 0.0828	 87.0	 87.0	 87.0	 0.0	 0.0	 1	 -30.0	 30.0;
	68	 69	 0.0	 0.037	 0.0	 793.0	 793.0	 793.0	 0.935	 0.0	 1	 -30.0	 30.0;
	69	 70	 0.03	 0.127	 0.122	 170.0	 170.0	 170.0	 0.0	 0.0	 1	 -30.0	 30.0;
	24	 70	 0.00221	 0.4115	 0.10198	 72.0	 72.0	 72.0	 0.0	 0.0	 1	 -30.0	 30.0;
	70	 71	 0.00882	 0.0355	 0.00878	 166.0	 166.0	 166.0	 0.0	 0.0	 1	 -30.0	 30.0;
	24	 72	 0.0488	 0.196	 0.0488	 146.0	 146.0	 146.0	 0.0	 0.0	 1	 -30.0	 30.0;
	71	 72	 0.0446	 0.18	 0.04444	 159.0	 159.0	 159.0	 0.0	 0.0	 1	 -30.0	 30.0;
	71	 73	 0.00866	 0.0454	 0.01178	 188.0	 188.0	 188.0	 0.0	 0.0	 1	 -30.0	 30.0;
	70	 74	 0.0401	 0.1323	 0.03368	 151.0	 151.0	 151.0	 0.0	 0.0	 1	 -30.0	 30.0;
	70	 75	 0.0428	 0.141	 0.036	 151.0	 151.0	 151.0	 0.0	 0.0	 1	 -30.0	 30.0;
	69	 75	 0.0405	 0.122	 0.124	 145.0	 145.0	 145.0	 0.0	 0.0	 1	 -30.0	 30.0;
	74	 75	 0.0123	 0.0406	 0.01034	 151.0	 151.0	 151.0	 0.0	 0.0	 1	 -30.0	 30.0;
	76	 77	 0.0444	 0.148	 0.0368	 152.0	 152.0	 152.0	 0.0	 0.0	 1	 -30.0	 30.0;
	69	 77	 0.0309	 0.101	 0.1038	 150.0	 150.0	 150.0	 0.0	 0.0	 1	 -30.0	 30.0;
	75	 77	 0.0601	 0.1999	 0.04978	 141.0	 141.0	 141.0	 0.0	 0.0	 1	 -30.0	 30.0;
	77	 78	 0.00376	 0.0124	 0.01264	 151.0	 151.0	 151.0	 0.0	 0.0	 1	 -30.0	 30.0;
	78	 79	 0.00546	 0.0244	 0.00648	 174.0	 174.0	 174.0	 0.0	 0.0	 1	 -30.0	 30.0;
	77	 80	 0.017	 0.0485	 0.0472	 141.0	 141.0	 141.0	 0.0	 0.0	 1	 -30.0	 30.0;
	77	 80	 0.0294	 0.105	 0.0228	 157.0	 157.0	 157.0	 0.0	 0.0	 1	 -30.0	 30.0;
	79	 80	 0.0156	 0.0704	 0.0187	 175.0	 175.0	 175.0	 0.0	 0.0	 1	 -30.0	 30.0;
	68	 81	 0.00175	 0.0202	 0.808	 684.0	 684.0	 684.0	 0.0	 0.0	 1	 -30.0	 30.0;
	81	 80	 0.0	 0.037	 0.0	 793.0	 793.0	 793.0	 0.935	 0.0	 1	 -30.0	 30.0;
	77	 82	 0.0298	 0.0853	 0.08174	 141.0	 141.0	 141.0	 0.0	 0.0	 1	 -30.0	 30.0;
	82	 83	 0.0112	 0.03665	 0.03796	 150.0	 150.0	 150.0	 0.0	 0.0	 1	 -30.0	 30.0;
	83	 84	 0.0625	 0.132	 0.0258	 122.0	 122.0	 122.0	 0.0	 0.0	 1	 -30.0	 30.0;
	83	 85	 0.043	 0.148	 0.0348	 154.0	 154.0	 154.0	 0.0	 0.0	 1	 -30.0	 30.0;
	84	 85	 0.0302	 0.0641	 0.01234	 122.0	 122.0	 122.0	 0.0	 0.0	 1	 -30.0	 30.0;
	85	 86	 0.035	 0.123	 0.0276	 156.0	 156.0	 156.0	 0.0	 0.0	 1	 -30.0	 30.0;
	86	 87	 0.02828	 0.2074	 0.0445	 141.0	 141.0	 141.0	 1.0	 0.0	 1	 -30.0	 30.0;
	85	 88	 0.02	 0.102	 0.0276	 186.0	 186.0	 186.0	 0.0	 0.0	 1	 -30.0	 30.0;
	85	 89	 0.0239	 0.173	 0.047	 168.0	 168.0	 168.0	 0.0	 0.0	 1	 -30.0	 30.0;
	88	 89	 0.0139	 0.0712	 0.01934	 186.0	 186.0	 186.0	 0.0	 0.0	 1	 -30.0	 30.0;
	89	 90	 0.0518	 0.188	 0.0528	 151.0	 151.0	 151.0	 0.0	 0.0	 1	 -30.0	 30.0;
	89	 90	 0.0238	 0.0997	 0.106	 169.0	 169.0	 169.0	 0.0	 0.0	 1	 -30.0	 30.0;
	90	 91	 0.0254	 0.0836	 0.0214	 151.0	 151.0	 151.0	 0.0	 0.0	 1	 -30.0	 30.0;
	89	 92	 0.0099	 0.0505	 0.0548	 186.0	 186.0	 186.0	 0.0	 0.0	 1	 -30.0	 30.0;
	89	 92	 0.0393	 0.1581	 0.0414	 166.0	 166.0	 166.0	 0.0	 0.0	 1	 -30.0	 30.0;
	91	 92	 0.0387	 0.1272	 0.03268	 151.0	 151.0	 151.0	 0.0	 0.0	 1	 -30.0	 30.0;
	92	 93	 0.0258	 0.0848	 0.0218	 151.0	 151.0	 151.0	 0.0	 0.0	 1	 -30.0	 30.0;
	92	 94	 0.0481	 0.158	 0.0406	 151.0	 151.0	 151.0	 0.0	 0.0	 1	 -30.0	 30.0;
	93	 94	 0.0223	 0.0732	 0.01876	 151.0	 151.0	 151.0	 0.0	 0.0	 1	 -30.0	 30.0;
	94	 95	 0.0132	 0.0434	 0.0111	 151.0	 151.0	 151.0	 0.0	 0.0	 1	 -30.0	 30.0;
	80	 96	 0.0356	 0.182	 0.0494	 159.0	 159.0	 159.0	 0.0	 0.0	 1	 -30.0	 30.0;
	82	 96	 0.0162	 0.053	 0.0544	 150.0	 150.0	 150.0	 0.0	 0.0	 1	 -30.0	 30.0;
	94	 96	 0.0269	 0.0869	 0.023	 149.0	 149.0	 149.0	 0.0	 0.0	 1	 -30.0	 30.0;
	80	 97	 0.0183	 0.0934	 0.0254	 186.0	 186.0	 186.0	 0.0	 0.0	 1	 -30.0	 30.0;
	80	 98	 0.0238	 0.108	 0.0286	 176.0	 176.0	 176.0	 0.0	 0.0	 1	 -30.0	 30.0;
	80	 99	 0.0454	 0.206	 0.0546	 140.0	 140.0	 140.0	 0.0	 0.0	 1	 -30.0	 30.0;
	92	 100	 0.0648	 0.295	 0.0472	 98.0	 98.0	 98.0	 0.0	 0.0	 1	 -30.0	 30.0;
	94	 100	 0.0178	 0.058	 0.0604	 150.0	 150.0	 150.0	 0.0	 0.0	 1	 -30.0	 30.0;
	95	 96	 0.0171	 0.0547	 0.01474	 149.0	 149.0	 149.0	 0.0	 0.0	 1	 -30.0	 30.0;
	96	 97	 0.0173	 0.0885	 0.024	 186.0	 186.0	 186.0	 0.0	 0.0	 1	 -30.0	 30.0;
	98	 100	 0.0397	 0.179	 0.0476	 160.0	 160.0	 160.0	 0.0	 0.0	 1	 -30.0	 30.0;
	99	 100	 0.018	 0.0813	 0.0216	 175.0	 175.0	 175.0	 0.0	 0.0	 1	 -30.0	 30.0;
	100	 101	 0.0277	 0.1262	 0.0328	 176.0	 176.0	 176.0	 0.0	 0.0	 1	 -30.0	 30.0;
	92	 102	 0.0123	 0.0559	 0.01464	 176.0	 176.0	 176.0	 0.0	 0.0	 1	 -30.0	 30.0;
	101	 102	 0.0246	 0.112	 0.0294	 176.0	 176.0	 176.0	 0.0	 0.0	 1	 -30.0	 30.0;
	100	 103	 0.016	 0.0525	 0.0536	 151.0	 151.0	 151.0	 0.0	 0.0	 1	 -30.0	 30.0;
	100	 104	 0.0451	 0.204	 0.0541	 141.0	 141.0	 141.0	 0.0	 0.0	 1	 -30.0	 30.0;
	103	 104	 0.0466	 0.1584	 0.0407	 153.0	 153.0	 153.0	 0.0	 0.0	 1	 -30.0	 30.0;
	103	 105	 0.0535	 0.1625	 0.0408	 145.0	 145.0	 145.0	 0.0	 0.0	 1	 -30.0	 30.0;
	100	 106	 0.0605	 0.229	 0.062	 124.0	 124.0	 124.0	 0.0	 0.0	 1	 -30.0	 30.0;
	104	 105	 0.00994	 0.0378	 0.00986	 161.0	 161.0	 161.0	 0.0	 0.0	 1	 -30.0	 30.0;
	105	 106	 0.014	 0.0547	 0.01434	 164.0	 164.0	 164.0	 0.0	 0.0	 1	 -30.0	 30.0;
	105	 107	 0.053	 0.183	 0.0472	 154.0	 154.0	 154.0	 0.0	 0.0	 1	 -30.0	 30.0;
	105	 108	 0.0261	 0.0703	 0.01844	 137.0	 137.0	 137.0	 0.0	 0.0	 1	 -30.0	 30.0;
	106	 107	 0.053	 0.183	 0.0472	 154.0	 154.0	 154.0	 0.0	 0.0	 1	 -30.0	 30.0;
	108	 109	 0.0105	 0.0288	 0.0076	 138.0	 138.0	 138.0	 0.0	 0.0	 1	 -30.0	 30.0;
	103	 110	 0.03906	 0.1813	 0.0461	 159.0	 159.0	 159.0	 0.0	 0.0	 1	 -30.0	 30.0;
	109	 110	 0.0278	 0.0762	 0.0202	 138.0	 138.0	 138.0	 0.0	 0.0	 1	 -30.0	 30.0;
	110	 111	 0.022	 0.0755	 0.02	 154.0	 154.0	 154.0	 0.0	 0.0	 1	 -30.0	 30.0;
	110	 112	 0.0247	 0.064	 0.062	 135.0	 135.0	 135.0	 0.0	 0.0	 1	 -30.0	 30.0;
	17	 113	 0.00913	 0.0301	 0.00768	 151.0	 151.0	 151.0	 0.0	 0.0	 1	 -30.0	 30.0;
	32	 113	 0.0615	 0.203	 0.0518	 139.0	 139.0	 139.0	 0.0	 0.0	 1	 -30.0	 30.0;
	32	 114	 0.0135	 0.0612	 0.01628	 176.0	 176.0	 176.0	 0.0	 0.0	 1	 -30.0	 30.0;
	27	 115	 0.0164	 0.0741	 0.01972	 175.0	 175.0	 175.0	 0.0	 0.0	 1	 -30.0	 30.0;
	114	 115	 0.0023	 0.0104	 0.00276	 175.0	 175.0	 175.0	 0.0	 0.0	 1	 -30.0	 30.0;
	68	 116	 0.00034	 0.00405	 0.164	 7218.0	 7218.0	 7218.0	 1.0	 0.0	 1	 -30.0	 30.0;
	12	 117	 0.0329	 0.14	 0.0358	 170.0	 170.0	 170.0	 0.0	 0.0	 1	 -30.0	 30.0;
	75	 118	 0.0145	 0.0481	 0.01198	 151.0	 151.0	 151.0	 0.0	 0.0	 1	 -30.0	 30.0;
	76	 118	 0.0164	 0.0544	 0.01356	 151.0	 151.0	 151.0	 0.0	 0.0	 1	 -30.0	 30.0;
];

% INFO    : === Translation Options ===
% INFO    : Load Model:                  from file ./pglib_opf_case118_ieee.m.api.sol
% INFO    : Gen Active Capacity Model:   stat
% INFO    : Gen Reactive Capacity Model: al50ag
% INFO    : Gen Active Cost Model:       stat
% INFO    : 
% INFO    : === Load Replacement Notes ===
% INFO    : Bus 1	: Pd=51.0, Qd=27.0 -> Pd=85.45, Qd=27.00
% INFO    : Bus 2	: Pd=20.0, Qd=9.0 -> Pd=33.51, Qd=9.00
% INFO    : Bus 3	: Pd=39.0, Qd=10.0 -> Pd=65.34, Qd=10.00
% INFO    : Bus 4	: Pd=39.0, Qd=12.0 -> Pd=65.34, Qd=12.00
% INFO    : Bus 6	: Pd=52.0, Qd=22.0 -> Pd=87.12, Qd=22.00
% INFO    : Bus 7	: Pd=19.0, Qd=2.0 -> Pd=31.83, Qd=2.00
% INFO    : Bus 8	: Pd=28.0, Qd=0.0 -> Pd=28.00, Qd=0.00
% INFO    : Bus 11	: Pd=70.0, Qd=23.0 -> Pd=117.28, Qd=23.00
% INFO    : Bus 12	: Pd=47.0, Qd=10.0 -> Pd=78.75, Qd=10.00
% INFO    : Bus 13	: Pd=34.0, Qd=16.0 -> Pd=56.96, Qd=16.00
% INFO    : Bus 14	: Pd=14.0, Qd=1.0 -> Pd=23.46, Qd=1.00
% INFO    : Bus 15	: Pd=90.0, Qd=30.0 -> Pd=150.79, Qd=30.00
% INFO    : Bus 16	: Pd=25.0, Qd=10.0 -> Pd=41.89, Qd=10.00
% INFO    : Bus 17	: Pd=11.0, Qd=3.0 -> Pd=18.43, Qd=3.00
% INFO    : Bus 18	: Pd=60.0, Qd=34.0 -> Pd=100.53, Qd=34.00
% INFO    : Bus 19	: Pd=45.0, Qd=25.0 -> Pd=75.39, Qd=25.00
% INFO    : Bus 20	: Pd=18.0, Qd=3.0 -> Pd=30.16, Qd=3.00
% INFO    : Bus 21	: Pd=14.0, Qd=8.0 -> Pd=23.46, Qd=8.00
% INFO    : Bus 22	: Pd=10.0, Qd=5.0 -> Pd=16.75, Qd=5.00
% INFO    : Bus 23	: Pd=7.0, Qd=3.0 -> Pd=11.73, Qd=3.00
% INFO    : Bus 24	: Pd=13.0, Qd=0.0 -> Pd=13.00, Qd=0.00
% INFO    : Bus 27	: Pd=71.0, Qd=13.0 -> Pd=118.96, Qd=13.00
% INFO    : Bus 28	: Pd=17.0, Qd=7.0 -> Pd=28.48, Qd=7.00
% INFO    : Bus 29	: Pd=24.0, Qd=4.0 -> Pd=40.21, Qd=4.00
% INFO    : Bus 31	: Pd=43.0, Qd=27.0 -> Pd=72.04, Qd=27.00
% INFO    : Bus 32	: Pd=59.0, Qd=23.0 -> Pd=98.85, Qd=23.00
% INFO    : Bus 33	: Pd=23.0, Qd=9.0 -> Pd=38.54, Qd=9.00
% INFO    : Bus 34	: Pd=59.0, Qd=26.0 -> Pd=98.85, Qd=26.00
% INFO    : Bus 35	: Pd=33.0, Qd=9.0 -> Pd=55.29, Qd=9.00
% INFO    : Bus 36	: Pd=31.0, Qd=17.0 -> Pd=51.94, Qd=17.00
% INFO    : Bus 39	: Pd=27.0, Qd=11.0 -> Pd=45.24, Qd=11.00
% INFO    : Bus 40	: Pd=66.0, Qd=23.0 -> Pd=110.58, Qd=23.00
% INFO    : Bus 41	: Pd=37.0, Qd=10.0 -> Pd=61.99, Qd=10.00
% INFO    : Bus 42	: Pd=96.0, Qd=23.0 -> Pd=160.84, Qd=23.00
% INFO    : Bus 43	: Pd=18.0, Qd=7.0 -> Pd=30.16, Qd=7.00
% INFO    : Bus 44	: Pd=16.0, Qd=8.0 -> Pd=26.81, Qd=8.00
% INFO    : Bus 45	: Pd=53.0, Qd=22.0 -> Pd=88.80, Qd=22.00
% INFO    : Bus 46	: Pd=28.0, Qd=10.0 -> Pd=46.91, Qd=10.00
% INFO    : Bus 47	: Pd=34.0, Qd=0.0 -> Pd=34.00, Qd=0.00
% INFO    : Bus 48	: Pd=20.0, Qd=11.0 -> Pd=33.51, Qd=11.00
% INFO    : Bus 49	: Pd=87.0, Qd=30.0 -> Pd=145.76, Qd=30.00
% INFO    : Bus 50	: Pd=17.0, Qd=4.0 -> Pd=28.48, Qd=4.00
% INFO    : Bus 51	: Pd=17.0, Qd=8.0 -> Pd=28.48, Qd=8.00
% INFO    : Bus 52	: Pd=18.0, Qd=5.0 -> Pd=30.16, Qd=5.00
% INFO    : Bus 53	: Pd=23.0, Qd=11.0 -> Pd=38.54, Qd=11.00
% INFO    : Bus 54	: Pd=113.0, Qd=32.0 -> Pd=189.32, Qd=32.00
% INFO    : Bus 55	: Pd=63.0, Qd=22.0 -> Pd=105.55, Qd=22.00
% INFO    : Bus 56	: Pd=84.0, Qd=18.0 -> Pd=140.74, Qd=18.00
% INFO    : Bus 57	: Pd=12.0, Qd=3.0 -> Pd=20.11, Qd=3.00
% INFO    : Bus 58	: Pd=12.0, Qd=3.0 -> Pd=20.11, Qd=3.00
% INFO    : Bus 59	: Pd=277.0, Qd=113.0 -> Pd=464.10, Qd=113.00
% INFO    : Bus 60	: Pd=78.0, Qd=3.0 -> Pd=130.68, Qd=3.00
% INFO    : Bus 62	: Pd=77.0, Qd=14.0 -> Pd=129.01, Qd=14.00
% INFO    : Bus 66	: Pd=39.0, Qd=18.0 -> Pd=65.34, Qd=18.00
% INFO    : Bus 67	: Pd=28.0, Qd=7.0 -> Pd=46.91, Qd=7.00
% INFO    : Bus 70	: Pd=66.0, Qd=20.0 -> Pd=110.58, Qd=20.00
% INFO    : Bus 72	: Pd=12.0, Qd=0.0 -> Pd=12.00, Qd=0.00
% INFO    : Bus 73	: Pd=6.0, Qd=0.0 -> Pd=6.00, Qd=0.00
% INFO    : Bus 74	: Pd=68.0, Qd=27.0 -> Pd=113.93, Qd=27.00
% INFO    : Bus 75	: Pd=47.0, Qd=11.0 -> Pd=78.75, Qd=11.00
% INFO    : Bus 76	: Pd=68.0, Qd=36.0 -> Pd=113.93, Qd=36.00
% INFO    : Bus 77	: Pd=61.0, Qd=28.0 -> Pd=102.20, Qd=28.00
% INFO    : Bus 78	: Pd=71.0, Qd=26.0 -> Pd=118.96, Qd=26.00
% INFO    : Bus 79	: Pd=39.0, Qd=32.0 -> Pd=65.34, Qd=32.00
% INFO    : Bus 80	: Pd=130.0, Qd=26.0 -> Pd=217.81, Qd=26.00
% INFO    : Bus 82	: Pd=54.0, Qd=27.0 -> Pd=90.47, Qd=27.00
% INFO    : Bus 83	: Pd=20.0, Qd=10.0 -> Pd=33.51, Qd=10.00
% INFO    : Bus 84	: Pd=11.0, Qd=7.0 -> Pd=18.43, Qd=7.00
% INFO    : Bus 85	: Pd=24.0, Qd=15.0 -> Pd=40.21, Qd=15.00
% INFO    : Bus 86	: Pd=21.0, Qd=10.0 -> Pd=35.18, Qd=10.00
% INFO    : Bus 88	: Pd=48.0, Qd=10.0 -> Pd=80.42, Qd=10.00
% INFO    : Bus 90	: Pd=163.0, Qd=42.0 -> Pd=273.10, Qd=42.00
% INFO    : Bus 91	: Pd=10.0, Qd=0.0 -> Pd=10.00, Qd=0.00
% INFO    : Bus 92	: Pd=65.0, Qd=10.0 -> Pd=108.90, Qd=10.00
% INFO    : Bus 93	: Pd=12.0, Qd=7.0 -> Pd=20.11, Qd=7.00
% INFO    : Bus 94	: Pd=30.0, Qd=16.0 -> Pd=50.26, Qd=16.00
% INFO    : Bus 95	: Pd=42.0, Qd=31.0 -> Pd=70.37, Qd=31.00
% INFO    : Bus 96	: Pd=38.0, Qd=15.0 -> Pd=63.67, Qd=15.00
% INFO    : Bus 97	: Pd=15.0, Qd=9.0 -> Pd=25.13, Qd=9.00
% INFO    : Bus 98	: Pd=34.0, Qd=8.0 -> Pd=56.96, Qd=8.00
% INFO    : Bus 99	: Pd=42.0, Qd=0.0 -> Pd=42.00, Qd=0.00
% INFO    : Bus 100	: Pd=37.0, Qd=18.0 -> Pd=61.99, Qd=18.00
% INFO    : Bus 101	: Pd=22.0, Qd=15.0 -> Pd=36.86, Qd=15.00
% INFO    : Bus 102	: Pd=5.0, Qd=3.0 -> Pd=8.38, Qd=3.00
% INFO    : Bus 103	: Pd=23.0, Qd=16.0 -> Pd=38.54, Qd=16.00
% INFO    : Bus 104	: Pd=38.0, Qd=25.0 -> Pd=63.67, Qd=25.00
% INFO    : Bus 105	: Pd=31.0, Qd=26.0 -> Pd=51.94, Qd=26.00
% INFO    : Bus 106	: Pd=43.0, Qd=16.0 -> Pd=72.04, Qd=16.00
% INFO    : Bus 107	: Pd=50.0, Qd=12.0 -> Pd=83.77, Qd=12.00
% INFO    : Bus 108	: Pd=2.0, Qd=1.0 -> Pd=3.35, Qd=1.00
% INFO    : Bus 109	: Pd=8.0, Qd=3.0 -> Pd=13.40, Qd=3.00
% INFO    : Bus 110	: Pd=39.0, Qd=30.0 -> Pd=65.34, Qd=30.00
% INFO    : Bus 112	: Pd=68.0, Qd=13.0 -> Pd=113.93, Qd=13.00
% INFO    : Bus 113	: Pd=6.0, Qd=0.0 -> Pd=6.00, Qd=0.00
% INFO    : Bus 114	: Pd=8.0, Qd=3.0 -> Pd=13.40, Qd=3.00
% INFO    : Bus 115	: Pd=22.0, Qd=7.0 -> Pd=36.86, Qd=7.00
% INFO    : Bus 116	: Pd=184.0, Qd=0.0 -> Pd=184.00, Qd=0.00
% INFO    : Bus 117	: Pd=20.0, Qd=8.0 -> Pd=33.51, Qd=8.00
% INFO    : Bus 118	: Pd=33.0, Qd=15.0 -> Pd=55.29, Qd=15.00
% INFO    : 
% INFO    : === Generator Setpoint Replacement Notes ===
% INFO    : Gen at bus 1	: Pg=0.0, Qg=5.0 -> Pg=0.0, Qg=98.0
% INFO    : Gen at bus 4	: Pg=0.0, Qg=0.0 -> Pg=0.0, Qg=181.0
% INFO    : Gen at bus 6	: Pg=0.0, Qg=18.5 -> Pg=0.0, Qg=96.0
% INFO    : Gen at bus 8	: Pg=0.0, Qg=0.0 -> Pg=0.0, Qg=-4.0
% INFO    : Gen at bus 10	: Pg=252.5, Qg=26.5 -> Pg=710.0, Qg=16.0
% INFO    : Gen at bus 12	: Pg=42.5, Qg=4.0 -> Pg=672.0, Qg=-15.0
% INFO    : Gen at bus 15	: Pg=0.0, Qg=10.0 -> Pg=0.0, Qg=-84.0
% INFO    : Gen at bus 18	: Pg=0.0, Qg=17.0 -> Pg=0.0, Qg=93.0
% INFO    : Gen at bus 19	: Pg=0.0, Qg=8.0 -> Pg=0.0, Qg=81.0
% INFO    : Gen at bus 24	: Pg=0.0, Qg=0.0 -> Pg=0.0, Qg=25.0
% INFO    : Gen at bus 25	: Pg=110.5, Qg=32.0 -> Pg=0.0, Qg=128.0
% INFO    : Gen at bus 26	: Pg=242.5, Qg=0.0 -> Pg=391.0, Qg=-197.0
% INFO    : Gen at bus 27	: Pg=0.0, Qg=0.0 -> Pg=0.0, Qg=244.0
% INFO    : Gen at bus 31	: Pg=8.5, Qg=0.0 -> Pg=427.0, Qg=-19.0
% INFO    : Gen at bus 32	: Pg=0.0, Qg=14.0 -> Pg=0.0, Qg=-86.0
% INFO    : Gen at bus 34	: Pg=0.0, Qg=8.0 -> Pg=0.0, Qg=146.0
% INFO    : Gen at bus 36	: Pg=0.0, Qg=8.0 -> Pg=0.0, Qg=62.0
% INFO    : Gen at bus 40	: Pg=0.0, Qg=0.0 -> Pg=0.0, Qg=152.0
% INFO    : Gen at bus 42	: Pg=0.0, Qg=0.0 -> Pg=0.0, Qg=4.0
% INFO    : Gen at bus 46	: Pg=10.0, Qg=0.0 -> Pg=435.0, Qg=-30.0
% INFO    : Gen at bus 49	: Pg=111.5, Qg=13.5 -> Pg=218.0, Qg=241.0
% INFO    : Gen at bus 54	: Pg=26.5, Qg=0.0 -> Pg=272.0, Qg=15.0
% INFO    : Gen at bus 55	: Pg=0.0, Qg=7.5 -> Pg=0.0, Qg=27.0
% INFO    : Gen at bus 56	: Pg=0.0, Qg=3.5 -> Pg=0.0, Qg=20.0
% INFO    : Gen at bus 59	: Pg=154.0, Qg=47.0 -> Pg=691.0, Qg=104.0
% INFO    : Gen at bus 61	: Pg=97.5, Qg=0.0 -> Pg=81.0, Qg=40.0
% INFO    : Gen at bus 62	: Pg=0.0, Qg=0.0 -> Pg=0.0, Qg=2.0
% INFO    : Gen at bus 65	: Pg=220.5, Qg=66.5 -> Pg=1116.0, Qg=-133.0
% INFO    : Gen at bus 66	: Pg=392.0, Qg=66.5 -> Pg=112.0, Qg=-49.0
% INFO    : Gen at bus 69	: Pg=591.0, Qg=0.0 -> Pg=27.0, Qg=-182.0
% INFO    : Gen at bus 70	: Pg=0.0, Qg=11.0 -> Pg=0.0, Qg=264.0
% INFO    : Gen at bus 72	: Pg=0.0, Qg=0.0 -> Pg=0.0, Qg=21.0
% INFO    : Gen at bus 73	: Pg=0.0, Qg=0.0 -> Pg=0.0, Qg=-1.0
% INFO    : Gen at bus 74	: Pg=0.0, Qg=1.5 -> Pg=0.0, Qg=-72.0
% INFO    : Gen at bus 76	: Pg=0.0, Qg=7.5 -> Pg=0.0, Qg=34.0
% INFO    : Gen at bus 77	: Pg=0.0, Qg=25.0 -> Pg=0.0, Qg=173.0
% INFO    : Gen at bus 80	: Pg=254.5, Qg=45.0 -> Pg=281.0, Qg=196.0
% INFO    : Gen at bus 85	: Pg=0.0, Qg=7.5 -> Pg=0.0, Qg=231.0
% INFO    : Gen at bus 87	: Pg=5.0, Qg=0.0 -> Pg=141.0, Qg=6.0
% INFO    : Gen at bus 89	: Pg=318.5, Qg=45.0 -> Pg=684.0, Qg=-112.0
% INFO    : Gen at bus 90	: Pg=0.0, Qg=0.0 -> Pg=0.0, Qg=89.0
% INFO    : Gen at bus 91	: Pg=0.0, Qg=0.0 -> Pg=0.0, Qg=-5.0
% INFO    : Gen at bus 92	: Pg=0.0, Qg=3.0 -> Pg=0.0, Qg=-6.0
% INFO    : Gen at bus 99	: Pg=0.0, Qg=0.0 -> Pg=0.0, Qg=11.0
% INFO    : Gen at bus 100	: Pg=326.5, Qg=52.5 -> Pg=517.0, Qg=-119.0
% INFO    : Gen at bus 103	: Pg=54.0, Qg=12.5 -> Pg=313.0, Qg=-12.0
% INFO    : Gen at bus 104	: Pg=0.0, Qg=7.5 -> Pg=0.0, Qg=70.0
% INFO    : Gen at bus 105	: Pg=0.0, Qg=7.5 -> Pg=0.0, Qg=52.0
% INFO    : Gen at bus 107	: Pg=0.0, Qg=0.0 -> Pg=0.0, Qg=41.0
% INFO    : Gen at bus 110	: Pg=0.0, Qg=7.5 -> Pg=0.0, Qg=70.0
% INFO    : Gen at bus 111	: Pg=39.5, Qg=0.0 -> Pg=104.0, Qg=-11.0
% INFO    : Gen at bus 112	: Pg=0.0, Qg=450.0 -> Pg=0.0, Qg=23.0
% INFO    : Gen at bus 113	: Pg=0.0, Qg=50.0 -> Pg=0.0, Qg=-126.0
% INFO    : Gen at bus 116	: Pg=0.0, Qg=0.0 -> Pg=0.0, Qg=-30.0
% INFO    : 
% INFO    : === Generator Reactive Capacity Atleast Setpoint Value Notes ===
% INFO    : Gen at bus 1	: Qg 98.0, Qmin -5.0, Qmax 15.0 -> Qmin -117.6, Qmax 117.6
% INFO    : Gen at bus 6	: Qg 96.0, Qmin -13.0, Qmax 50.0 -> Qmin -115.2, Qmax 115.2
% INFO    : Gen at bus 15	: Qg -84.0, Qmin -10.0, Qmax 30.0 -> Qmin -100.8, Qmax 100.8
% INFO    : Gen at bus 18	: Qg 93.0, Qmin -16.0, Qmax 50.0 -> Qmin -111.6, Qmax 111.6
% INFO    : Gen at bus 19	: Qg 81.0, Qmin -8.0, Qmax 24.0 -> Qmin -97.2, Qmax 97.2
% INFO    : Gen at bus 25	: Qg 128.0, Qmin -47.0, Qmax 111.0 -> Qmin -153.6, Qmax 153.6
% INFO    : Gen at bus 31	: Qg -19.0, Qmin -9.0, Qmax 9.0 -> Qmin -22.8, Qmax 22.8
% INFO    : Gen at bus 32	: Qg -86.0, Qmin -14.0, Qmax 42.0 -> Qmin -103.2, Qmax 103.2
% INFO    : Gen at bus 34	: Qg 146.0, Qmin -8.0, Qmax 24.0 -> Qmin -175.2, Qmax 175.2
% INFO    : Gen at bus 36	: Qg 62.0, Qmin -8.0, Qmax 24.0 -> Qmin -74.4, Qmax 74.4
% INFO    : Gen at bus 46	: Qg -30.0, Qmin -10.0, Qmax 10.0 -> Qmin -36.0, Qmax 36.0
% INFO    : Gen at bus 49	: Qg 241.0, Qmin -85.0, Qmax 112.0 -> Qmin -289.2, Qmax 289.2
% INFO    : Gen at bus 55	: Qg 27.0, Qmin -8.0, Qmax 23.0 -> Qmin -32.4, Qmax 32.4
% INFO    : Gen at bus 56	: Qg 20.0, Qmin -8.0, Qmax 15.0 -> Qmin -24.0, Qmax 24.0
% INFO    : Gen at bus 59	: Qg 104.0, Qmin -60.0, Qmax 154.0 -> Qmin -124.8, Qmax 154.0
% INFO    : Gen at bus 65	: Qg -133.0, Qmin -67.0, Qmax 200.0 -> Qmin -159.6, Qmax 200.0
% INFO    : Gen at bus 70	: Qg 264.0, Qmin -10.0, Qmax 32.0 -> Qmin -316.8, Qmax 316.8
% INFO    : Gen at bus 74	: Qg -72.0, Qmin -6.0, Qmax 9.0 -> Qmin -86.4, Qmax 86.4
% INFO    : Gen at bus 76	: Qg 34.0, Qmin -8.0, Qmax 23.0 -> Qmin -40.8, Qmax 40.8
% INFO    : Gen at bus 77	: Qg 173.0, Qmin -20.0, Qmax 70.0 -> Qmin -207.6, Qmax 207.6
% INFO    : Gen at bus 80	: Qg 196.0, Qmin -165.0, Qmax 255.0 -> Qmin -235.2, Qmax 255.0
% INFO    : Gen at bus 85	: Qg 231.0, Qmin -8.0, Qmax 23.0 -> Qmin -277.2, Qmax 277.2
% INFO    : Gen at bus 87	: Qg 6.0, Qmin -5.0, Qmax 5.0 -> Qmin -7.2, Qmax 7.2
% INFO    : Gen at bus 92	: Qg -6.0, Qmin -3.0, Qmax 9.0 -> Qmin -7.2, Qmax 9.0
% INFO    : Gen at bus 100	: Qg -119.0, Qmin -50.0, Qmax 155.0 -> Qmin -142.8, Qmax 155.0
% INFO    : Gen at bus 104	: Qg 70.0, Qmin -8.0, Qmax 23.0 -> Qmin -84.0, Qmax 84.0
% INFO    : Gen at bus 105	: Qg 52.0, Qmin -8.0, Qmax 23.0 -> Qmin -62.4, Qmax 62.4
% INFO    : Gen at bus 110	: Qg 70.0, Qmin -8.0, Qmax 23.0 -> Qmin -84.0, Qmax 84.0
% INFO    : Gen at bus 113	: Qg -126.0, Qmin -100.0, Qmax 200.0 -> Qmin -151.2, Qmax 200.0
% INFO    : 
% INFO    : === Generator Classification Notes ===
% INFO    : PEL    2   -     7.49
% INFO    : SYNC   35  -     0.00
% INFO    : COW    6   -    38.06
% INFO    : NG     11  -    54.45
% INFO    : 
% INFO    : === Generator Active Capacity Stat Model Notes ===
% INFO    : Gen at bus 1 - SYNC	: Pg=0.0, Pmax=0.0 -> Pmax=0   samples: 0
% INFO    : Gen at bus 4 - SYNC	: Pg=0.0, Pmax=0.0 -> Pmax=0   samples: 0
% INFO    : Gen at bus 6 - SYNC	: Pg=0.0, Pmax=0.0 -> Pmax=0   samples: 0
% INFO    : Gen at bus 8 - SYNC	: Pg=0.0, Pmax=0.0 -> Pmax=0   samples: 0
% WARNING : Failed to find a generator capacity within (710.0-3550.0) after 100 samples, using percent increase model
% INFO    : Gen at bus 10 - NG	: Pg=710.0, Pmax=505.0 -> Pmax=802   samples: 100
% WARNING : Failed to find a generator capacity within (672.0-3360.0) after 100 samples, using percent increase model
% INFO    : Gen at bus 12 - NG	: Pg=672.0, Pmax=85.0 -> Pmax=759   samples: 100
% INFO    : Gen at bus 15 - SYNC	: Pg=0.0, Pmax=0.0 -> Pmax=0   samples: 0
% INFO    : Gen at bus 18 - SYNC	: Pg=0.0, Pmax=0.0 -> Pmax=0   samples: 0
% INFO    : Gen at bus 19 - SYNC	: Pg=0.0, Pmax=0.0 -> Pmax=0   samples: 0
% INFO    : Gen at bus 24 - SYNC	: Pg=0.0, Pmax=0.0 -> Pmax=0   samples: 0
% INFO    : Gen at bus 25 - NG	: Pg=0.0, Pmax=221.0 -> Pmax=212   samples: 1
% WARNING : Failed to find a generator capacity within (391.0-1955.0) after 100 samples, using percent increase model
% INFO    : Gen at bus 26 - NG	: Pg=391.0, Pmax=485.0 -> Pmax=441   samples: 100
% INFO    : Gen at bus 27 - SYNC	: Pg=0.0, Pmax=0.0 -> Pmax=0   samples: 0
% INFO    : Gen at bus 31 - NG	: Pg=427.0, Pmax=17.0 -> Pmax=568   samples: 5
% INFO    : Gen at bus 32 - SYNC	: Pg=0.0, Pmax=0.0 -> Pmax=0   samples: 0
% INFO    : Gen at bus 34 - SYNC	: Pg=0.0, Pmax=0.0 -> Pmax=0   samples: 0
% INFO    : Gen at bus 36 - SYNC	: Pg=0.0, Pmax=0.0 -> Pmax=0   samples: 0
% INFO    : Gen at bus 40 - SYNC	: Pg=0.0, Pmax=0.0 -> Pmax=0   samples: 0
% INFO    : Gen at bus 42 - SYNC	: Pg=0.0, Pmax=0.0 -> Pmax=0   samples: 0
% WARNING : Failed to find a generator capacity within (435.0-2175.0) after 100 samples, using percent increase model
% INFO    : Gen at bus 46 - PEL	: Pg=435.0, Pmax=20.0 -> Pmax=505   samples: 100
% INFO    : Gen at bus 49 - NG	: Pg=218.0, Pmax=223.0 -> Pmax=242   samples: 2
% INFO    : Gen at bus 54 - NG	: Pg=272.0, Pmax=53.0 -> Pmax=407   samples: 36
% INFO    : Gen at bus 55 - SYNC	: Pg=0.0, Pmax=0.0 -> Pmax=0   samples: 0
% INFO    : Gen at bus 56 - SYNC	: Pg=0.0, Pmax=0.0 -> Pmax=0   samples: 0
% WARNING : Failed to find a generator capacity within (691.0-3455.0) after 100 samples, using percent increase model
% INFO    : Gen at bus 59 - NG	: Pg=691.0, Pmax=308.0 -> Pmax=780   samples: 100
% INFO    : Gen at bus 61 - NG	: Pg=81.0, Pmax=195.0 -> Pmax=237   samples: 2
% INFO    : Gen at bus 62 - SYNC	: Pg=0.0, Pmax=0.0 -> Pmax=0   samples: 0
% INFO    : Gen at bus 65 - COW	: Pg=1116.0, Pmax=441.0 -> Pmax=1156   samples: 68
% INFO    : Gen at bus 66 - COW	: Pg=112.0, Pmax=784.0 -> Pmax=139   samples: 1
% INFO    : Gen at bus 69 - COW	: Pg=27.0, Pmax=1182.0 -> Pmax=113   samples: 2
% INFO    : Gen at bus 70 - SYNC	: Pg=0.0, Pmax=0.0 -> Pmax=0   samples: 0
% INFO    : Gen at bus 72 - SYNC	: Pg=0.0, Pmax=0.0 -> Pmax=0   samples: 0
% INFO    : Gen at bus 73 - SYNC	: Pg=0.0, Pmax=0.0 -> Pmax=0   samples: 0
% INFO    : Gen at bus 74 - SYNC	: Pg=0.0, Pmax=0.0 -> Pmax=0   samples: 0
% INFO    : Gen at bus 76 - SYNC	: Pg=0.0, Pmax=0.0 -> Pmax=0   samples: 0
% INFO    : Gen at bus 77 - SYNC	: Pg=0.0, Pmax=0.0 -> Pmax=0   samples: 0
% INFO    : Gen at bus 80 - COW	: Pg=281.0, Pmax=509.0 -> Pmax=305   samples: 8
% INFO    : Gen at bus 85 - SYNC	: Pg=0.0, Pmax=0.0 -> Pmax=0   samples: 0
% INFO    : Gen at bus 87 - NG	: Pg=141.0, Pmax=10.0 -> Pmax=159   samples: 6
% INFO    : Gen at bus 89 - COW	: Pg=684.0, Pmax=637.0 -> Pmax=1148   samples: 33
% INFO    : Gen at bus 90 - SYNC	: Pg=0.0, Pmax=0.0 -> Pmax=0   samples: 0
% INFO    : Gen at bus 91 - SYNC	: Pg=0.0, Pmax=0.0 -> Pmax=0   samples: 0
% INFO    : Gen at bus 92 - SYNC	: Pg=0.0, Pmax=0.0 -> Pmax=0   samples: 0
% INFO    : Gen at bus 99 - SYNC	: Pg=0.0, Pmax=0.0 -> Pmax=0   samples: 0
% INFO    : Gen at bus 100 - COW	: Pg=517.0, Pmax=653.0 -> Pmax=915   samples: 1
% INFO    : Gen at bus 103 - NG	: Pg=313.0, Pmax=108.0 -> Pmax=336   samples: 1
% INFO    : Gen at bus 104 - SYNC	: Pg=0.0, Pmax=0.0 -> Pmax=0   samples: 0
% INFO    : Gen at bus 105 - SYNC	: Pg=0.0, Pmax=0.0 -> Pmax=0   samples: 0
% INFO    : Gen at bus 107 - SYNC	: Pg=0.0, Pmax=0.0 -> Pmax=0   samples: 0
% INFO    : Gen at bus 110 - SYNC	: Pg=0.0, Pmax=0.0 -> Pmax=0   samples: 0
% INFO    : Gen at bus 111 - PEL	: Pg=104.0, Pmax=79.0 -> Pmax=189   samples: 17
% INFO    : Gen at bus 112 - SYNC	: Pg=0.0, Pmax=0.0 -> Pmax=0   samples: 0
% INFO    : Gen at bus 113 - SYNC	: Pg=0.0, Pmax=0.0 -> Pmax=0   samples: 0
% INFO    : Gen at bus 116 - SYNC	: Pg=0.0, Pmax=0.0 -> Pmax=0   samples: 0
% INFO    : 
% INFO    : === Generator Active Capacity LB Model Notes ===
% INFO    : 
% INFO    : === Generator Reactive Capacity Atleast Max 50 Percent Active Model Notes ===
% INFO    : Gen at bus 10 - NG	: Pmax 802.0, Qmin -147.0, Qmax 200.0 -> Qmin -401.0, Qmax 401.0
% INFO    : Gen at bus 12 - NG	: Pmax 759.0, Qmin -35.0, Qmax 43.0 -> Qmin -380.0, Qmax 380.0
% INFO    : Gen at bus 31 - NG	: Pmax 568.0, Qmin -22.8, Qmax 22.8 -> Qmin -284.0, Qmax 284.0
% INFO    : Gen at bus 46 - PEL	: Pmax 505.0, Qmin -36.0, Qmax 36.0 -> Qmin -253.0, Qmax 253.0
% INFO    : Gen at bus 54 - NG	: Pmax 407.0, Qmin -27.0, Qmax 27.0 -> Qmin -204.0, Qmax 204.0
% INFO    : Gen at bus 59 - NG	: Pmax 780.0, Qmin -124.8, Qmax 154.0 -> Qmin -390.0, Qmax 390.0
% INFO    : Gen at bus 61 - NG	: Pmax 237.0, Qmin -98.0, Qmax 98.0 -> Qmin -119.0, Qmax 119.0
% INFO    : Gen at bus 65 - COW	: Pmax 1156.0, Qmin -159.6, Qmax 200.0 -> Qmin -578.0, Qmax 578.0
% INFO    : Gen at bus 66 - COW	: Pmax 139.0, Qmin -67.0, Qmax 200.0 -> Qmin -70.0, Qmax 200.0
% INFO    : Gen at bus 87 - NG	: Pmax 159.0, Qmin -7.2, Qmax 7.2 -> Qmin -80.0, Qmax 80.0
% INFO    : Gen at bus 89 - COW	: Pmax 1148.0, Qmin -210.0, Qmax 300.0 -> Qmin -574.0, Qmax 574.0
% INFO    : Gen at bus 100 - COW	: Pmax 915.0, Qmin -142.8, Qmax 155.0 -> Qmin -458.0, Qmax 458.0
% INFO    : Gen at bus 103 - NG	: Pmax 336.0, Qmin -15.0, Qmax 40.0 -> Qmin -168.0, Qmax 168.0
% INFO    : Gen at bus 111 - PEL	: Pmax 189.0, Qmin -40.0, Qmax 40.0 -> Qmin -95.0, Qmax 95.0
% INFO    : 
% INFO    : === Generator Setpoint Replacement Notes ===
% INFO    : Gen at bus 1	: Pg=0.0, Qg=98.0 -> Pg=0.0, Qg=0.0
% INFO    : Gen at bus 4	: Pg=0.0, Qg=181.0 -> Pg=0.0, Qg=0.0
% INFO    : Gen at bus 6	: Pg=0.0, Qg=96.0 -> Pg=0.0, Qg=0.0
% INFO    : Gen at bus 8	: Pg=0.0, Qg=-4.0 -> Pg=0.0, Qg=0.0
% INFO    : Gen at bus 10	: Pg=710.0, Qg=16.0 -> Pg=401.0, Qg=0.0
% INFO    : Gen at bus 12	: Pg=672.0, Qg=-15.0 -> Pg=379.5, Qg=0.0
% INFO    : Gen at bus 15	: Pg=0.0, Qg=-84.0 -> Pg=0.0, Qg=0.0
% INFO    : Gen at bus 18	: Pg=0.0, Qg=93.0 -> Pg=0.0, Qg=0.0
% INFO    : Gen at bus 19	: Pg=0.0, Qg=81.0 -> Pg=0.0, Qg=0.0
% INFO    : Gen at bus 24	: Pg=0.0, Qg=25.0 -> Pg=0.0, Qg=0.0
% INFO    : Gen at bus 25	: Pg=0.0, Qg=128.0 -> Pg=106.0, Qg=0.0
% INFO    : Gen at bus 26	: Pg=391.0, Qg=-197.0 -> Pg=220.5, Qg=0.0
% INFO    : Gen at bus 27	: Pg=0.0, Qg=244.0 -> Pg=0.0, Qg=0.0
% INFO    : Gen at bus 31	: Pg=427.0, Qg=-19.0 -> Pg=284.0, Qg=0.0
% INFO    : Gen at bus 32	: Pg=0.0, Qg=-86.0 -> Pg=0.0, Qg=0.0
% INFO    : Gen at bus 34	: Pg=0.0, Qg=146.0 -> Pg=0.0, Qg=0.0
% INFO    : Gen at bus 36	: Pg=0.0, Qg=62.0 -> Pg=0.0, Qg=0.0
% INFO    : Gen at bus 40	: Pg=0.0, Qg=152.0 -> Pg=0.0, Qg=0.0
% INFO    : Gen at bus 42	: Pg=0.0, Qg=4.0 -> Pg=0.0, Qg=0.0
% INFO    : Gen at bus 46	: Pg=435.0, Qg=-30.0 -> Pg=252.5, Qg=0.0
% INFO    : Gen at bus 49	: Pg=218.0, Qg=241.0 -> Pg=121.0, Qg=0.0
% INFO    : Gen at bus 54	: Pg=272.0, Qg=15.0 -> Pg=203.5, Qg=0.0
% INFO    : Gen at bus 55	: Pg=0.0, Qg=27.0 -> Pg=0.0, Qg=0.0
% INFO    : Gen at bus 56	: Pg=0.0, Qg=20.0 -> Pg=0.0, Qg=0.0
% INFO    : Gen at bus 59	: Pg=691.0, Qg=104.0 -> Pg=390.0, Qg=0.0
% INFO    : Gen at bus 61	: Pg=81.0, Qg=40.0 -> Pg=118.5, Qg=0.0
% INFO    : Gen at bus 62	: Pg=0.0, Qg=2.0 -> Pg=0.0, Qg=0.0
% INFO    : Gen at bus 65	: Pg=1116.0, Qg=-133.0 -> Pg=578.0, Qg=0.0
% INFO    : Gen at bus 66	: Pg=112.0, Qg=-49.0 -> Pg=69.5, Qg=65.0
% INFO    : Gen at bus 69	: Pg=27.0, Qg=-182.0 -> Pg=56.5, Qg=0.0
% INFO    : Gen at bus 70	: Pg=0.0, Qg=264.0 -> Pg=0.0, Qg=0.0
% INFO    : Gen at bus 72	: Pg=0.0, Qg=21.0 -> Pg=0.0, Qg=0.0
% INFO    : Gen at bus 73	: Pg=0.0, Qg=-1.0 -> Pg=0.0, Qg=0.0
% INFO    : Gen at bus 74	: Pg=0.0, Qg=-72.0 -> Pg=0.0, Qg=0.0
% INFO    : Gen at bus 76	: Pg=0.0, Qg=34.0 -> Pg=0.0, Qg=0.0
% INFO    : Gen at bus 77	: Pg=0.0, Qg=173.0 -> Pg=0.0, Qg=0.0
% INFO    : Gen at bus 80	: Pg=281.0, Qg=196.0 -> Pg=152.5, Qg=9.9
% INFO    : Gen at bus 85	: Pg=0.0, Qg=231.0 -> Pg=0.0, Qg=0.0
% INFO    : Gen at bus 87	: Pg=141.0, Qg=6.0 -> Pg=79.5, Qg=0.0
% INFO    : Gen at bus 89	: Pg=684.0, Qg=-112.0 -> Pg=574.0, Qg=0.0
% INFO    : Gen at bus 90	: Pg=0.0, Qg=89.0 -> Pg=0.0, Qg=0.0
% INFO    : Gen at bus 91	: Pg=0.0, Qg=-5.0 -> Pg=0.0, Qg=0.0
% INFO    : Gen at bus 92	: Pg=0.0, Qg=-6.0 -> Pg=0.0, Qg=0.9
% INFO    : Gen at bus 99	: Pg=0.0, Qg=11.0 -> Pg=0.0, Qg=0.0
% INFO    : Gen at bus 100	: Pg=517.0, Qg=-119.0 -> Pg=457.5, Qg=0.0
% INFO    : Gen at bus 103	: Pg=313.0, Qg=-12.0 -> Pg=168.0, Qg=0.0
% INFO    : Gen at bus 104	: Pg=0.0, Qg=70.0 -> Pg=0.0, Qg=0.0
% INFO    : Gen at bus 105	: Pg=0.0, Qg=52.0 -> Pg=0.0, Qg=0.0
% INFO    : Gen at bus 107	: Pg=0.0, Qg=41.0 -> Pg=0.0, Qg=0.0
% INFO    : Gen at bus 110	: Pg=0.0, Qg=70.0 -> Pg=0.0, Qg=0.0
% INFO    : Gen at bus 111	: Pg=104.0, Qg=-11.0 -> Pg=94.5, Qg=0.0
% INFO    : Gen at bus 112	: Pg=0.0, Qg=23.0 -> Pg=0.0, Qg=450.0
% INFO    : Gen at bus 113	: Pg=0.0, Qg=-126.0 -> Pg=0.0, Qg=24.4
% INFO    : Gen at bus 116	: Pg=0.0, Qg=-30.0 -> Pg=0.0, Qg=0.0
% INFO    : 
% INFO    : === Writing Matpower Case File Notes ===
